naphthalene-1-carboxylic acid
  -OEChem-02121815223D

 21 22  0     0  0  0  0  0  0999 V2000
   -0.4966   -2.0341    0.4940 C   0  0  0  0  0  0  0  0  0  0  0  0
    0.3500   -1.0275    0.0392 C   0  0  0  0  0  0  0  0  0  0  0  0
    3.0228   -5.3167   -0.2210 C   0  0  0  0  0  0  0  0  0  0  0  0
   -0.0479   -3.3542    0.5448 C   0  0  0  0  0  0  0  0  0  0  0  0
    1.6484   -1.3369   -0.3665 C   0  0  0  0  0  0  0  0  0  0  0  0
    1.7243   -5.0072    0.1848 C   0  0  0  0  0  0  0  0  0  0  0  0
    3.8693   -4.3100   -0.6758 C   0  0  0  0  0  0  0  0  0  0  0  0
    1.2560   -3.6839    0.1403 C   0  0  0  0  0  0  0  0  0  0  0  0
    2.1168   -2.6602   -0.3222 C   0  0  0  0  0  0  0  0  0  0  0  0
    3.4207   -2.9899   -0.7267 C   0  0  0  0  0  0  0  0  0  0  0  0
    4.3660   -1.9905   -1.2168 C   0  0  0  0  0  0  0  0  0  0  0  0
    4.1932   -1.2736   -2.2036 O   0  0  0  0  0  0  0  0  0  0  0  0
    5.4884   -1.9261   -0.4534 O   0  0  0  0  0  0  0  0  0  0  0  0
   -1.5071   -1.7920    0.8102 H   0  0  0  0  0  0  0  0  0  0  0  0
    0.0004    0.0001    0.0021 H   0  0  0  0  0  0  0  0  0  0  0  0
    3.3728   -6.3441   -0.1812 H   0  0  0  0  0  0  0  0  0  0  0  0
   -0.7266   -4.1251    0.9043 H   0  0  0  0  0  0  0  0  0  0  0  0
    2.2789   -0.5220   -0.7141 H   0  0  0  0  0  0  0  0  0  0  0  0
    1.0797   -5.8100    0.5365 H   0  0  0  0  0  0  0  0  0  0  0  0
    4.8785   -4.5664   -0.9886 H   0  0  0  0  0  0  0  0  0  0  0  0
    6.1298   -1.2566   -0.7740 H   0  0  0  0  0  0  0  0  0  0  0  0
  1  2  1  0  0  0  0
  1  4  2  0  0  0  0
  2  5  2  0  0  0  0
  3  6  2  0  0  0  0
  3  7  1  0  0  0  0
  4  8  1  0  0  0  0
  5  9  1  0  0  0  0
  6  8  1  0  0  0  0
  7 10  2  0  0  0  0
  8  9  2  0  0  0  0
  9 10  1  0  0  0  0
 10 11  1  0  0  0  0
 11 12  2  0  0  0  0
 11 13  1  0  0  0  0
  1 14  1  0  0  0  0
  2 15  1  0  0  0  0
  3 16  1  0  0  0  0
  4 17  1  0  0  0  0
  5 18  1  0  0  0  0
  6 19  1  0  0  0  0
  7 20  1  0  0  0  0
 13 21  1  0  0  0  0
M  END
$$$$
