(2~{S},5~{R},6~{R})-6-[[(2~{R})-2-amino-2-(4-hydroxyphenyl)acetyl]amino]-3,3-dim
  -OEChem-02121815213D

 44 46  0     1  0  0  0  0  0999 V2000
    2.6372   -3.9184    2.9670 C   0  0  0  0  0  0  0  0  0  0  0  0
    0.3566   -4.0275    3.7568 C   0  0  0  0  0  0  0  0  0  0  0  0
    3.0346   -3.3763    4.1892 C   0  0  0  0  0  0  0  0  0  0  0  0
    0.7540   -3.4855    4.9791 C   0  0  0  0  0  0  0  0  0  0  0  0
    1.2982   -4.2439    2.7508 C   0  0  0  0  0  0  0  0  0  0  0  0
    2.0930   -3.1599    5.1953 C   0  0  0  0  0  0  0  0  0  0  0  0
    0.4131   -0.9512   -1.5254 C   0  0  0  0  0  0  0  0  0  0  0  0
    0.1564    2.3544   -0.9853 C   0  0  0  0  0  0  0  0  0  0  0  0
   -0.1912   -3.9738    0.7446 C   0  0  0  0  0  0  0  0  0  0  0  0
   -0.4130   -2.0483   -0.8232 C   0  0  2  0  0  0  0  0  0  0  0  0
    0.4240    1.1392   -0.1557 C   0  0  1  0  0  0  0  0  0  0  0  0
   -1.0444   -0.8982   -0.0173 C   0  0  2  0  0  0  0  0  0  0  0  0
   -0.1081    1.1977    1.2914 C   0  0  0  0  0  0  0  0  0  0  0  0
    0.9577    1.7195    2.2571 C   0  0  0  0  0  0  0  0  0  0  0  0
   -1.4077    1.9963    1.4613 C   0  0  0  0  0  0  0  0  0  0  0  0
    0.8676   -4.8317    1.4270 C   0  0  2  0  0  0  0  0  0  0  0  0
   -0.2238    0.0224   -0.8121 N   0  0  0  0  0  0  0  0  0  0  0  0
    0.3390   -6.1653    1.5768 N   0  0  0  0  0  0  0  0  0  0  0  0
    0.3750   -3.0250   -0.0861 N   0  0  0  0  0  0  0  0  0  0  0  0
    1.3428   -0.9239   -2.2998 O   0  0  0  0  0  0  0  0  0  0  0  0
   -0.8697    2.5618   -1.6156 O   0  0  0  0  0  0  0  0  0  0  0  0
   -1.3948   -4.1060    0.9573 O   0  0  0  0  0  0  0  0  0  0  0  0
    2.4812   -2.6322    6.3883 O   0  0  0  0  0  0  0  0  0  0  0  0
    1.2135    3.2020   -0.9475 O   0  0  0  0  0  0  0  0  0  0  0  0
   -0.4718   -0.5829    1.6949 S   0  0  0  0  0  0  0  0  0  0  0  0
    3.3775   -4.0835    2.1888 H   0  0  0  0  0  0  0  0  0  0  0  0
   -0.6890   -4.2781    3.5972 H   0  0  0  0  0  0  0  0  0  0  0  0
    4.0794   -3.1250    4.3517 H   0  0  0  0  0  0  0  0  0  0  0  0
    0.0159   -3.3196    5.7588 H   0  0  0  0  0  0  0  0  0  0  0  0
   -1.1131   -2.5434   -1.5056 H   0  0  0  0  0  0  0  0  0  0  0  0
    1.5074    0.9629   -0.1724 H   0  0  0  0  0  0  0  0  0  0  0  0
   -2.1162   -0.7480   -0.1800 H   0  0  0  0  0  0  0  0  0  0  0  0
    0.5543    1.7494    3.2671 H   0  0  0  0  0  0  0  0  0  0  0  0
    1.2604    2.7219    1.9621 H   0  0  0  0  0  0  0  0  0  0  0  0
    1.8244    1.0622    2.2364 H   0  0  0  0  0  0  0  0  0  0  0  0
   -1.7062    1.9838    2.5057 H   0  0  0  0  0  0  0  0  0  0  0  0
   -2.1898    1.5476    0.8555 H   0  0  0  0  0  0  0  0  0  0  0  0
   -1.2460    3.0223    1.1428 H   0  0  0  0  0  0  0  0  0  0  0  0
    1.7280   -4.9349    0.7548 H   0  0  0  0  0  0  0  0  0  0  0  0
    0.7560   -6.7814    2.2533 H   0  0  0  0  0  0  0  0  0  0  0  0
   -0.2885   -6.5219    0.8765 H   0  0  0  0  0  0  0  0  0  0  0  0
    1.3783   -2.9850   -0.2034 H   0  0  0  0  0  0  0  0  0  0  0  0
    1.7178   -2.5424    6.9807 H   0  0  0  0  0  0  0  0  0  0  0  0
    1.0580    4.0058   -1.4879 H   0  0  0  0  0  0  0  0  0  0  0  0
  1  3  2  0  0  0  0
  1  5  1  0  0  0  0
  2  4  1  0  0  0  0
  2  5  2  0  0  0  0
  3  6  1  0  0  0  0
  4  6  2  0  0  0  0
  5 16  1  0  0  0  0
  6 23  1  0  0  0  0
  7 10  1  0  0  0  0
  7 17  1  0  0  0  0
  7 20  2  0  0  0  0
  8 11  1  0  0  0  0
  8 21  2  0  0  0  0
  8 24  1  0  0  0  0
  9 16  1  0  0  0  0
  9 19  1  0  0  0  0
  9 22  2  0  0  0  0
 10 12  1  0  0  0  0
 10 19  1  0  0  0  0
 11 13  1  0  0  0  0
 11 17  1  0  0  0  0
 12 17  1  0  0  0  0
 12 25  1  0  0  0  0
 13 14  1  0  0  0  0
 13 15  1  0  0  0  0
 13 25  1  0  0  0  0
 16 18  1  0  0  0  0
  1 26  1  0  0  0  0
  2 27  1  0  0  0  0
  3 28  1  0  0  0  0
  4 29  1  0  0  0  0
 10 30  1  0  0  0  0
 11 31  1  0  0  0  0
 12 32  1  0  0  0  0
 14 33  1  0  0  0  0
 14 34  1  0  0  0  0
 14 35  1  0  0  0  0
 15 36  1  0  0  0  0
 15 37  1  0  0  0  0
 15 38  1  0  0  0  0
 16 39  1  0  0  0  0
 18 40  1  0  0  0  0
 18 41  1  0  0  0  0
 19 42  1  0  0  0  0
 23 43  1  0  0  0  0
 24 44  1  0  0  0  0
M  END
$$$$
