ethyl 4-aminobenzoate
  -OEChem-02121815213D

 23 23  0     0  0  0  0  0  0999 V2000
    1.8851   -1.0363   -0.1124 C   0  0  0  0  0  0  0  0  0  0  0  0
    2.8783   -1.6520    2.0022 C   0  0  0  0  0  0  0  0  0  0  0  0
    0.8066   -0.4630    0.5610 C   0  0  0  0  0  0  0  0  0  0  0  0
    1.7997   -1.0786    2.6757 C   0  0  0  0  0  0  0  0  0  0  0  0
    2.9210   -1.6309    0.6081 C   0  0  0  0  0  0  0  0  0  0  0  0
    0.7638   -0.4841    1.9551 C   0  0  0  0  0  0  0  0  0  0  0  0
    4.0455   -2.2286   -0.0940 C   0  0  0  0  0  0  0  0  0  0  0  0
    6.9982   -3.8983    1.3178 C   0  0  0  0  0  0  0  0  0  0  0  0
    6.1155   -3.3770    0.2039 C   0  0  0  0  0  0  0  0  0  0  0  0
   -0.3267    0.0956    2.6360 N   0  0  0  0  0  0  0  0  0  0  0  0
    4.1673   -2.2562   -1.3259 O   0  0  0  0  0  0  0  0  0  0  0  0
    4.9583   -2.7586    0.7767 O   0  0  0  0  0  0  0  0  0  0  0  0
    1.9083   -1.0142   -1.1990 H   0  0  0  0  0  0  0  0  0  0  0  0
    3.6800   -2.1126    2.5737 H   0  0  0  0  0  0  0  0  0  0  0  0
    0.0047   -0.0024   -0.0104 H   0  0  0  0  0  0  0  0  0  0  0  0
    1.7764   -1.1006    3.7622 H   0  0  0  0  0  0  0  0  0  0  0  0
    7.3248   -3.0839    1.9705 H   0  0  0  0  0  0  0  0  0  0  0  0
    6.4631   -4.6404    1.9192 H   0  0  0  0  0  0  0  0  0  0  0  0
    7.8820   -4.3983    0.9078 H   0  0  0  0  0  0  0  0  0  0  0  0
    5.7925   -4.1964   -0.4451 H   0  0  0  0  0  0  0  0  0  0  0  0
    6.6514   -2.6350   -0.3954 H   0  0  0  0  0  0  0  0  0  0  0  0
   -1.0393    0.5599    2.1101 H   0  0  0  0  0  0  0  0  0  0  0  0
   -0.3225    0.1156    3.6358 H   0  0  0  0  0  0  0  0  0  0  0  0
  1  3  1  0  0  0  0
  1  5  2  0  0  0  0
  2  4  2  0  0  0  0
  2  5  1  0  0  0  0
  3  6  2  0  0  0  0
  4  6  1  0  0  0  0
  5  7  1  0  0  0  0
  6 10  1  0  0  0  0
  7 11  2  0  0  0  0
  7 12  1  0  0  0  0
  8  9  1  0  0  0  0
  9 12  1  0  0  0  0
  1 13  1  0  0  0  0
  2 14  1  0  0  0  0
  3 15  1  0  0  0  0
  4 16  1  0  0  0  0
  8 17  1  0  0  0  0
  8 18  1  0  0  0  0
  8 19  1  0  0  0  0
  9 20  1  0  0  0  0
  9 21  1  0  0  0  0
 10 22  1  0  0  0  0
 10 23  1  0  0  0  0
M  END
$$$$
