2-butoxy-~{N}-[2-(diethylamino)ethyl]quinoline-4-carboxamide
  -OEChem-02121815213D

 54 55  0     0  0  0  0  0  0999 V2000
    0.1298    2.0977   -0.4527 C   0  0  0  0  0  0  0  0  0  0  0  0
   -0.5469    0.8976   -0.2738 C   0  0  0  0  0  0  0  0  0  0  0  0
   -0.5812    3.2417   -0.8037 C   0  0  0  0  0  0  0  0  0  0  0  0
   -1.9323    0.8440   -0.4461 C   0  0  0  0  0  0  0  0  0  0  0  0
   -4.0902    4.2376   -1.4936 C   0  0  0  0  0  0  0  0  0  0  0  0
   -1.9747    3.1875   -0.9770 C   0  0  0  0  0  0  0  0  0  0  0  0
   -2.7151    4.3237   -1.3301 C   0  0  0  0  0  0  0  0  0  0  0  0
   -2.6683    1.9725   -0.7968 C   0  0  0  0  0  0  0  0  0  0  0  0
   -4.6804    3.0058   -1.2959 C   0  0  0  0  0  0  0  0  0  0  0  0
   -2.0995    5.6305   -1.5410 C   0  0  0  0  0  0  0  0  0  0  0  0
  -10.2680    0.3881   -1.4377 C   0  0  0  0  0  0  0  0  0  0  0  0
    0.8715   11.2442   -1.3784 C   0  0  0  0  0  0  0  0  0  0  0  0
    1.6991    9.1364    1.2321 C   0  0  0  0  0  0  0  0  0  0  0  0
   -8.7626    0.3075   -1.2419 C   0  0  0  0  0  0  0  0  0  0  0  0
   -8.0954    1.6606   -1.4721 C   0  0  0  0  0  0  0  0  0  0  0  0
    0.4505    9.8200   -1.2480 C   0  0  0  0  0  0  0  0  0  0  0  0
    0.4664    9.9709    1.1498 C   0  0  0  0  0  0  0  0  0  0  0  0
   -2.0365    8.0251   -0.8171 C   0  0  0  0  0  0  0  0  0  0  0  0
   -0.8194    8.2572    0.0624 C   0  0  0  0  0  0  0  0  0  0  0  0
   -6.5934    1.5942   -1.2349 C   0  0  0  0  0  0  0  0  0  0  0  0
   -4.0027    1.8858   -0.9548 N   0  0  0  0  0  0  0  0  0  0  0  0
   -2.5325    6.6714   -0.7155 N   0  0  0  0  0  0  0  0  0  0  0  0
   -0.3412    9.6103   -0.0258 N   0  0  0  0  0  0  0  0  0  0  0  0
   -1.2499    5.7856   -2.4322 O   0  0  0  0  0  0  0  0  0  0  0  0
   -6.0366    2.8855   -1.4504 O   0  0  0  0  0  0  0  0  0  0  0  0
    1.2064    2.1423   -0.3194 H   0  0  0  0  0  0  0  0  0  0  0  0
   -0.0001   -0.0001   -0.0005 H   0  0  0  0  0  0  0  0  0  0  0  0
   -0.0262    4.1669   -0.9367 H   0  0  0  0  0  0  0  0  0  0  0  0
   -2.4396   -0.1078   -0.3000 H   0  0  0  0  0  0  0  0  0  0  0  0
   -4.6851    5.1038   -1.7649 H   0  0  0  0  0  0  0  0  0  0  0  0
  -10.5145    0.7371   -2.4456 H   0  0  0  0  0  0  0  0  0  0  0  0
  -10.7359   -0.5903   -1.2886 H   0  0  0  0  0  0  0  0  0  0  0  0
  -10.7068    1.0875   -0.7193 H   0  0  0  0  0  0  0  0  0  0  0  0
    0.0003   11.9061   -1.4313 H   0  0  0  0  0  0  0  0  0  0  0  0
    1.5016   11.5438   -0.5338 H   0  0  0  0  0  0  0  0  0  0  0  0
    1.4530   11.3769   -2.2986 H   0  0  0  0  0  0  0  0  0  0  0  0
    1.4467    8.0739    1.3177 H   0  0  0  0  0  0  0  0  0  0  0  0
    2.3320    9.2873    0.3508 H   0  0  0  0  0  0  0  0  0  0  0  0
    2.2799    9.4183    2.1185 H   0  0  0  0  0  0  0  0  0  0  0  0
   -8.5504   -0.0441   -0.2255 H   0  0  0  0  0  0  0  0  0  0  0  0
   -8.3492   -0.4346   -1.9348 H   0  0  0  0  0  0  0  0  0  0  0  0
   -8.2867    2.0095   -2.4945 H   0  0  0  0  0  0  0  0  0  0  0  0
   -8.5344    2.4178   -0.8104 H   0  0  0  0  0  0  0  0  0  0  0  0
    1.3252    9.1648   -1.1956 H   0  0  0  0  0  0  0  0  0  0  0  0
   -0.1656    9.5180   -2.1000 H   0  0  0  0  0  0  0  0  0  0  0  0
    0.7257   11.0305    1.0645 H   0  0  0  0  0  0  0  0  0  0  0  0
   -0.1568    9.8310    2.0379 H   0  0  0  0  0  0  0  0  0  0  0  0
   -1.8089    8.2118   -1.8714 H   0  0  0  0  0  0  0  0  0  0  0  0
   -2.8517    8.6894   -0.5137 H   0  0  0  0  0  0  0  0  0  0  0  0
   -1.0694    8.0725    1.1117 H   0  0  0  0  0  0  0  0  0  0  0  0
    0.0075    7.5970   -0.2187 H   0  0  0  0  0  0  0  0  0  0  0  0
   -6.3733    1.2873   -0.2076 H   0  0  0  0  0  0  0  0  0  0  0  0
   -6.1192    0.8908   -1.9268 H   0  0  0  0  0  0  0  0  0  0  0  0
   -3.2757    6.5012   -0.0458 H   0  0  0  0  0  0  0  0  0  0  0  0
  1  2  1  0  0  0  0
  1  3  2  0  0  0  0
  2  4  2  0  0  0  0
  3  6  1  0  0  0  0
  4  8  1  0  0  0  0
  5  7  1  0  0  0  0
  5  9  2  0  0  0  0
  6  7  2  0  0  0  0
  6  8  1  0  0  0  0
  7 10  1  0  0  0  0
  8 21  2  0  0  0  0
  9 21  1  0  0  0  0
  9 25  1  0  0  0  0
 10 22  1  0  0  0  0
 10 24  2  0  0  0  0
 11 14  1  0  0  0  0
 12 16  1  0  0  0  0
 13 17  1  0  0  0  0
 14 15  1  0  0  0  0
 15 20  1  0  0  0  0
 16 23  1  0  0  0  0
 17 23  1  0  0  0  0
 18 19  1  0  0  0  0
 18 22  1  0  0  0  0
 19 23  1  0  0  0  0
 20 25  1  0  0  0  0
  1 26  1  0  0  0  0
  2 27  1  0  0  0  0
  3 28  1  0  0  0  0
  4 29  1  0  0  0  0
  5 30  1  0  0  0  0
 11 31  1  0  0  0  0
 11 32  1  0  0  0  0
 11 33  1  0  0  0  0
 12 34  1  0  0  0  0
 12 35  1  0  0  0  0
 12 36  1  0  0  0  0
 13 37  1  0  0  0  0
 13 38  1  0  0  0  0
 13 39  1  0  0  0  0
 14 40  1  0  0  0  0
 14 41  1  0  0  0  0
 15 42  1  0  0  0  0
 15 43  1  0  0  0  0
 16 44  1  0  0  0  0
 16 45  1  0  0  0  0
 17 46  1  0  0  0  0
 17 47  1  0  0  0  0
 18 48  1  0  0  0  0
 18 49  1  0  0  0  0
 19 50  1  0  0  0  0
 19 51  1  0  0  0  0
 20 52  1  0  0  0  0
 20 53  1  0  0  0  0
 22 54  1  0  0  0  0
M  END
$$$$
