(2~{S})-2-[[4-[(2-amino-4-hydroxy-pteridin-6-yl)methylamino]benzoyl]amino]pentan
  -OEChem-02121815223D

 51 53  0     1  0  0  0  0  0999 V2000
    1.7542    4.5121   -2.8715 C   0  0  0  0  0  0  0  0  0  0  0  0
    1.6740    5.9863   -0.9590 C   0  0  0  0  0  0  0  0  0  0  0  0
    1.9758    5.6073   -3.7064 C   0  0  0  0  0  0  0  0  0  0  0  0
    1.8957    7.0815   -1.7940 C   0  0  0  0  0  0  0  0  0  0  0  0
    3.7637   10.4674   -5.2549 C   0  0  0  0  0  0  0  0  0  0  0  0
    1.6032    4.7017   -1.4978 C   0  0  0  0  0  0  0  0  0  0  0  0
    1.6872   11.9589   -6.0075 C   0  0  0  0  0  0  0  0  0  0  0  0
    2.0466    6.8919   -3.1677 C   0  0  0  0  0  0  0  0  0  0  0  0
    2.5498   10.3307   -4.6391 C   0  0  0  0  0  0  0  0  0  0  0  0
    2.9208   12.1088   -6.6448 C   0  0  0  0  0  0  0  0  0  0  0  0
    0.6674   12.7729   -6.4620 C   0  0  0  0  0  0  0  0  0  0  0  0
    2.0158   13.7317   -7.9906 C   0  0  0  0  0  0  0  0  0  0  0  0
    1.3671    3.5352   -0.6085 C   0  0  0  0  0  0  0  0  0  0  0  0
    4.7087    3.4271    1.3062 C   0  0  0  0  0  0  0  0  0  0  0  0
    1.3904    3.2659    3.0314 C   0  0  0  0  0  0  0  0  0  0  0  0
    2.3544    9.3419   -3.5263 C   0  0  0  0  0  0  0  0  0  0  0  0
    4.1929    2.3238    2.1957 C   0  0  0  0  0  0  0  0  0  0  0  0
    2.8827    1.6968    1.7111 C   0  0  0  0  0  0  0  0  0  0  0  0
    1.6565    2.6244    1.6812 C   0  0  2  0  0  0  0  0  0  0  0  0
    3.9526   11.3513   -6.2537 N   0  0  0  0  0  0  0  0  0  0  0  0
    1.4964   11.0756   -5.0087 N   0  0  0  0  0  0  0  0  0  0  0  0
    3.0845   12.9942   -7.6352 N   0  0  0  0  0  0  0  0  0  0  0  0
    0.7919   13.6737   -7.4533 N   0  0  0  0  0  0  0  0  0  0  0  0
    2.2076   14.6610   -9.0354 N   0  0  0  0  0  0  0  0  0  0  0  0
    2.2707    7.9992   -4.0119 N   0  0  0  0  0  0  0  0  0  0  0  0
    1.7948    3.6906    0.6914 N   0  0  0  0  0  0  0  0  0  0  0  0
    0.8416    2.5256   -1.0700 O   0  0  0  0  0  0  0  0  0  0  0  0
    4.9610    4.5591    1.6983 O   0  0  0  0  0  0  0  0  0  0  0  0
    1.1476    2.6630    4.0688 O   0  0  0  0  0  0  0  0  0  0  0  0
   -0.5732   12.6821   -5.8826 O   0  0  0  0  0  0  0  0  0  0  0  0
    4.8778    3.0285    0.0211 O   0  0  0  0  0  0  0  0  0  0  0  0
    1.4484    4.6227    2.9695 O   0  0  0  0  0  0  0  0  0  0  0  0
    1.7009    3.5154   -3.3019 H   0  0  0  0  0  0  0  0  0  0  0  0
    1.5579    6.1455    0.1099 H   0  0  0  0  0  0  0  0  0  0  0  0
    2.0920    5.4482   -4.7754 H   0  0  0  0  0  0  0  0  0  0  0  0
    1.9491    8.0783   -1.3637 H   0  0  0  0  0  0  0  0  0  0  0  0
    4.6292    9.8775   -4.9786 H   0  0  0  0  0  0  0  0  0  0  0  0
    3.1858    9.3921   -2.8148 H   0  0  0  0  0  0  0  0  0  0  0  0
    1.4360    9.5541   -2.9688 H   0  0  0  0  0  0  0  0  0  0  0  0
    4.0932    2.7166    3.2135 H   0  0  0  0  0  0  0  0  0  0  0  0
    4.9743    1.5556    2.2498 H   0  0  0  0  0  0  0  0  0  0  0  0
    3.0246    1.2643    0.7125 H   0  0  0  0  0  0  0  0  0  0  0  0
    2.6594    0.8525    2.3761 H   0  0  0  0  0  0  0  0  0  0  0  0
    0.7690    2.0410    1.4073 H   0  0  0  0  0  0  0  0  0  0  0  0
    3.1195   14.7684   -9.4301 H   0  0  0  0  0  0  0  0  0  0  0  0
    1.4525   15.2610   -9.2976 H   0  0  0  0  0  0  0  0  0  0  0  0
    2.3713    7.8109   -4.9915 H   0  0  0  0  0  0  0  0  0  0  0  0
    2.2771    4.5212    0.9958 H   0  0  0  0  0  0  0  0  0  0  0  0
   -1.1758   13.3094   -6.3045 H   0  0  0  0  0  0  0  0  0  0  0  0
    5.2216    3.7171   -0.5873 H   0  0  0  0  0  0  0  0  0  0  0  0
    1.2817    5.0883    3.8166 H   0  0  0  0  0  0  0  0  0  0  0  0
  1  3  2  0  0  0  0
  1  6  1  0  0  0  0
  2  4  1  0  0  0  0
  2  6  2  0  0  0  0
  3  8  1  0  0  0  0
  4  8  2  0  0  0  0
  5  9  1  0  0  0  0
  5 20  2  0  0  0  0
  6 13  1  0  0  0  0
  7 10  1  0  0  0  0
  7 11  2  0  0  0  0
  7 21  1  0  0  0  0
  8 25  1  0  0  0  0
  9 16  1  0  0  0  0
  9 21  2  0  0  0  0
 10 20  1  0  0  0  0
 10 22  2  0  0  0  0
 11 23  1  0  0  0  0
 11 30  1  0  0  0  0
 12 22  1  0  0  0  0
 12 23  2  0  0  0  0
 12 24  1  0  0  0  0
 13 26  1  0  0  0  0
 13 27  2  0  0  0  0
 14 17  1  0  0  0  0
 14 28  2  0  0  0  0
 14 31  1  0  0  0  0
 15 19  1  0  0  0  0
 15 29  2  0  0  0  0
 15 32  1  0  0  0  0
 16 25  1  0  0  0  0
 17 18  1  0  0  0  0
 18 19  1  0  0  0  0
 19 26  1  0  0  0  0
  1 33  1  0  0  0  0
  2 34  1  0  0  0  0
  3 35  1  0  0  0  0
  4 36  1  0  0  0  0
  5 37  1  0  0  0  0
 16 38  1  0  0  0  0
 16 39  1  0  0  0  0
 17 40  1  0  0  0  0
 17 41  1  0  0  0  0
 18 42  1  0  0  0  0
 18 43  1  0  0  0  0
 19 44  1  0  0  0  0
 24 45  1  0  0  0  0
 24 46  1  0  0  0  0
 25 47  1  0  0  0  0
 26 48  1  0  0  0  0
 30 49  1  0  0  0  0
 31 50  1  0  0  0  0
 32 51  1  0  0  0  0
M  END
$$$$
