6-chloro-1,1-dioxo-3,4-dihydro-2~{H}-1$l^{6},2,4-benzothiadiazine-7-sulfonamide
  -OEChem-02121815223D

 25 26  0     0  0  0  0  0  0999 V2000
   -2.1146   -0.8073    2.5409 C   0  0  0  0  0  0  0  0  0  0  0  0
   -0.8194   -1.9570    0.3585 C   0  0  0  0  0  0  0  0  0  0  0  0
   -2.3228   -2.1724    2.2850 C   0  0  0  0  0  0  0  0  0  0  0  0
   -1.6520   -2.7216    1.1811 C   0  0  0  0  0  0  0  0  0  0  0  0
   -0.6425   -0.6048    0.6330 C   0  0  0  0  0  0  0  0  0  0  0  0
   -1.2881   -0.0296    1.7239 C   0  0  0  0  0  0  0  0  0  0  0  0
   -3.4942   -4.2764    2.8883 C   0  0  0  0  0  0  0  0  0  0  0  0
   -3.1337   -2.8993    3.1431 N   0  0  0  0  0  0  0  0  0  0  0  0
   -2.3889   -5.0456    2.2889 N   0  0  0  0  0  0  0  0  0  0  0  0
    1.9085    0.1192    0.3623 N   0  0  0  0  0  0  0  0  0  0  0  0
   -0.4855   -4.9708    0.5699 O   0  0  0  0  0  0  0  0  0  0  0  0
   -2.8575   -4.5349   -0.2016 O   0  0  0  0  0  0  0  0  0  0  0  0
    0.4532   -0.3476   -1.7137 O   0  0  0  0  0  0  0  0  0  0  0  0
    0.0160    1.7194   -0.3412 O   0  0  0  0  0  0  0  0  0  0  0  0
   -1.8137   -4.4381    0.7993 S   0  0  0  0  0  0  0  0  0  0  0  0
    0.4056    0.3206   -0.4229 S   0  0  0  0  0  0  0  0  0  0  0  0
   -1.0989    1.6426    2.1143 Cl  0  0  0  0  0  0  0  0  0  0  0  0
   -2.6095   -0.3469    3.3955 H   0  0  0  0  0  0  0  0  0  0  0  0
   -0.3172   -2.4113   -0.4917 H   0  0  0  0  0  0  0  0  0  0  0  0
   -3.7781   -4.7555    3.8307 H   0  0  0  0  0  0  0  0  0  0  0  0
   -4.3671   -4.3197    2.2275 H   0  0  0  0  0  0  0  0  0  0  0  0
   -3.6185   -2.4053    3.8835 H   0  0  0  0  0  0  0  0  0  0  0  0
   -1.6893   -5.3923    2.9574 H   0  0  0  0  0  0  0  0  0  0  0  0
    2.6095   -0.4819   -0.0878 H   0  0  0  0  0  0  0  0  0  0  0  0
    2.3085    0.9297    0.8505 H   0  0  0  0  0  0  0  0  0  0  0  0
  1  3  2  0  0  0  0
  1  6  1  0  0  0  0
  2  4  2  0  0  0  0
  2  5  1  0  0  0  0
  3  4  1  0  0  0  0
  3  8  1  0  0  0  0
  4 15  1  0  0  0  0
  5  6  2  0  0  0  0
  5 16  1  0  0  0  0
  6 17  1  0  0  0  0
  7  8  1  0  0  0  0
  7  9  1  0  0  0  0
  9 15  1  0  0  0  0
 10 16  1  0  0  0  0
 11 15  2  0  0  0  0
 12 15  2  0  0  0  0
 13 16  2  0  0  0  0
 14 16  2  0  0  0  0
  1 18  1  0  0  0  0
  2 19  1  0  0  0  0
  7 20  1  0  0  0  0
  7 21  1  0  0  0  0
  8 22  1  0  0  0  0
  9 23  1  0  0  0  0
 10 24  1  0  0  0  0
 10 25  1  0  0  0  0
M  END
$$$$
