3-(5,6-dihydrobenzo[b][1]benzazepin-11-yl)-~{N},~{N}-dimethyl-propan-1-amine
  -OEChem-02121815223D

 45 47  0     0  0  0  0  0  0999 V2000
   -1.1470    3.7048    7.8095 C   0  0  0  0  0  0  0  0  0  0  0  0
   -0.4539    0.1879    0.9683 C   0  0  0  0  0  0  0  0  0  0  0  0
   -1.7498    2.5022    8.1235 C   0  0  0  0  0  0  0  0  0  0  0  0
   -0.6418   -0.8539    1.8657 C   0  0  0  0  0  0  0  0  0  0  0  0
   -0.9185    4.0188    6.4753 C   0  0  0  0  0  0  0  0  0  0  0  0
   -0.8488    1.4761    1.3172 C   0  0  0  0  0  0  0  0  0  0  0  0
   -2.1094    1.6197    7.1019 C   0  0  0  0  0  0  0  0  0  0  0  0
   -1.2261   -0.6042    3.1089 C   0  0  0  0  0  0  0  0  0  0  0  0
   -1.2946    3.1469    5.4231 C   0  0  0  0  0  0  0  0  0  0  0  0
   -1.4362    1.7353    2.5686 C   0  0  0  0  0  0  0  0  0  0  0  0
   -1.8938    1.8998    5.7257 C   0  0  0  0  0  0  0  0  0  0  0  0
   -1.6360    0.6925    3.4885 C   0  0  0  0  0  0  0  0  0  0  0  0
   -0.9933    3.6752    4.0365 C   0  0  0  0  0  0  0  0  0  0  0  0
   -1.8579    3.1355    2.9088 C   0  0  0  0  0  0  0  0  0  0  0  0
   -5.4995    1.2995    1.8781 C   0  0  0  0  0  0  0  0  0  0  0  0
   -6.5313   -0.4184    3.2035 C   0  0  0  0  0  0  0  0  0  0  0  0
   -4.6013    0.5024    5.4311 C   0  0  0  0  0  0  0  0  0  0  0  0
   -3.2295   -0.0986    5.1321 C   0  0  0  0  0  0  0  0  0  0  0  0
   -5.2017    1.2801    4.2620 C   0  0  0  0  0  0  0  0  0  0  0  0
   -2.2367    0.9198    4.7537 N   0  0  0  0  0  0  0  0  0  0  0  0
   -5.3643    0.4701    3.0859 N   0  0  0  0  0  0  0  0  0  0  0  0
   -0.8538    4.3959    8.5933 H   0  0  0  0  0  0  0  0  0  0  0  0
   -0.0001    0.0003   -0.0001 H   0  0  0  0  0  0  0  0  0  0  0  0
   -1.9314    2.2357    9.1604 H   0  0  0  0  0  0  0  0  0  0  0  0
   -0.3330   -1.8615    1.6037 H   0  0  0  0  0  0  0  0  0  0  0  0
   -0.4427    4.9714    6.2468 H   0  0  0  0  0  0  0  0  0  0  0  0
   -0.6950    2.2831    0.6047 H   0  0  0  0  0  0  0  0  0  0  0  0
   -2.5438    0.6740    7.4201 H   0  0  0  0  0  0  0  0  0  0  0  0
   -1.3437   -1.4429    3.7921 H   0  0  0  0  0  0  0  0  0  0  0  0
   -1.1443    4.7634    4.0475 H   0  0  0  0  0  0  0  0  0  0  0  0
    0.0710    3.5048    3.8265 H   0  0  0  0  0  0  0  0  0  0  0  0
   -1.7375    3.7825    2.0307 H   0  0  0  0  0  0  0  0  0  0  0  0
   -2.9252    3.1596    3.1616 H   0  0  0  0  0  0  0  0  0  0  0  0
   -4.6373    1.9643    1.7803 H   0  0  0  0  0  0  0  0  0  0  0  0
   -6.4071    1.9066    1.9361 H   0  0  0  0  0  0  0  0  0  0  0  0
   -5.5580    0.6659    0.9890 H   0  0  0  0  0  0  0  0  0  0  0  0
   -6.4415   -1.0399    4.0982 H   0  0  0  0  0  0  0  0  0  0  0  0
   -6.6002   -1.0696    2.3280 H   0  0  0  0  0  0  0  0  0  0  0  0
   -7.4493    0.1710    3.2751 H   0  0  0  0  0  0  0  0  0  0  0  0
   -4.5104    1.1664    6.2995 H   0  0  0  0  0  0  0  0  0  0  0  0
   -5.2952   -0.2999    5.7105 H   0  0  0  0  0  0  0  0  0  0  0  0
   -2.8352   -0.6464    5.9935 H   0  0  0  0  0  0  0  0  0  0  0  0
   -3.3038   -0.7971    4.2925 H   0  0  0  0  0  0  0  0  0  0  0  0
   -4.5415    2.1090    3.9879 H   0  0  0  0  0  0  0  0  0  0  0  0
   -6.1802    1.6977    4.5184 H   0  0  0  0  0  0  0  0  0  0  0  0
  1  3  1  0  0  0  0
  1  5  2  0  0  0  0
  2  4  1  0  0  0  0
  2  6  2  0  0  0  0
  3  7  2  0  0  0  0
  4  8  2  0  0  0  0
  5  9  1  0  0  0  0
  6 10  1  0  0  0  0
  7 11  1  0  0  0  0
  8 12  1  0  0  0  0
  9 11  2  0  0  0  0
  9 13  1  0  0  0  0
 10 12  2  0  0  0  0
 10 14  1  0  0  0  0
 11 20  1  0  0  0  0
 12 20  1  0  0  0  0
 13 14  1  0  0  0  0
 15 21  1  0  0  0  0
 16 21  1  0  0  0  0
 17 18  1  0  0  0  0
 17 19  1  0  0  0  0
 18 20  1  0  0  0  0
 19 21  1  0  0  0  0
  1 22  1  0  0  0  0
  2 23  1  0  0  0  0
  3 24  1  0  0  0  0
  4 25  1  0  0  0  0
  5 26  1  0  0  0  0
  6 27  1  0  0  0  0
  7 28  1  0  0  0  0
  8 29  1  0  0  0  0
 13 30  1  0  0  0  0
 13 31  1  0  0  0  0
 14 32  1  0  0  0  0
 14 33  1  0  0  0  0
 15 34  1  0  0  0  0
 15 35  1  0  0  0  0
 15 36  1  0  0  0  0
 16 37  1  0  0  0  0
 16 38  1  0  0  0  0
 16 39  1  0  0  0  0
 17 40  1  0  0  0  0
 17 41  1  0  0  0  0
 18 42  1  0  0  0  0
 18 43  1  0  0  0  0
 19 44  1  0  0  0  0
 19 45  1  0  0  0  0
M  END
$$$$
