2-[1-(4-chlorobenzoyl)-5-methoxy-2-methyl-indol-3-yl]acetic acid
  -OEChem-02121815223D

 41 43  0     0  0  0  0  0  0999 V2000
   -2.0608   -4.7124    0.1821 C   0  0  0  0  0  0  0  0  0  0  0  0
   -3.7909   -3.4942    1.3483 C   0  0  0  0  0  0  0  0  0  0  0  0
   -0.4315   -1.7338    1.1991 C   0  0  0  0  0  0  0  0  0  0  0  0
    0.3813   -0.6875    0.7507 C   0  0  0  0  0  0  0  0  0  0  0  0
   -2.7913   -4.6161   -1.0022 C   0  0  0  0  0  0  0  0  0  0  0  0
   -4.5214   -3.3979    0.1639 C   0  0  0  0  0  0  0  0  0  0  0  0
    2.1737   -1.3928    2.2101 C   0  0  0  0  0  0  0  0  0  0  0  0
    1.3727   -2.4558    2.6773 C   0  0  0  0  0  0  0  0  0  0  0  0
   -2.5606   -4.1515    1.3574 C   0  0  0  0  0  0  0  0  0  0  0  0
    1.5906   -3.4878    3.6197 C   0  0  0  0  0  0  0  0  0  0  0  0
    0.0744   -2.6160    2.1732 C   0  0  0  0  0  0  0  0  0  0  0  0
    1.6665   -0.5165    1.2488 C   0  0  0  0  0  0  0  0  0  0  0  0
   -4.0216   -3.9589   -1.0114 C   0  0  0  0  0  0  0  0  0  0  0  0
    0.4476   -4.2448    3.6782 C   0  0  0  0  0  0  0  0  0  0  0  0
   -1.7878   -4.2528    2.6105 C   0  0  0  0  0  0  0  0  0  0  0  0
    3.6554   -4.8335    3.8268 C   0  0  0  0  0  0  0  0  0  0  0  0
    0.2124   -5.4327    4.5334 C   0  0  0  0  0  0  0  0  0  0  0  0
    3.7484    0.6287    1.3494 C   0  0  0  0  0  0  0  0  0  0  0  0
    2.8247   -3.7087    4.4034 C   0  0  0  0  0  0  0  0  0  0  0  0
   -0.4876   -3.7352    2.7973 N   0  0  0  0  0  0  0  0  0  0  0  0
   -2.3136   -4.8406    3.5500 O   0  0  0  0  0  0  0  0  0  0  0  0
    3.2991   -5.5338    2.8875 O   0  0  0  0  0  0  0  0  0  0  0  0
    4.8249   -5.0171    4.4894 O   0  0  0  0  0  0  0  0  0  0  0  0
    2.4389    0.5102    0.7966 O   0  0  0  0  0  0  0  0  0  0  0  0
   -4.9220   -3.8389   -2.4727 Cl  0  0  0  0  0  0  0  0  0  0  0  0
   -1.1035   -5.2272    0.1781 H   0  0  0  0  0  0  0  0  0  0  0  0
   -4.1898   -3.0531    2.2581 H   0  0  0  0  0  0  0  0  0  0  0  0
   -1.4286   -1.8371    0.7866 H   0  0  0  0  0  0  0  0  0  0  0  0
   -0.0063   -0.0026   -0.0000 H   0  0  0  0  0  0  0  0  0  0  0  0
   -2.3896   -5.0573   -1.9109 H   0  0  0  0  0  0  0  0  0  0  0  0
   -5.4787   -2.8830    0.1721 H   0  0  0  0  0  0  0  0  0  0  0  0
    3.1812   -1.2549    2.5945 H   0  0  0  0  0  0  0  0  0  0  0  0
   -0.2143   -5.1377    5.5034 H   0  0  0  0  0  0  0  0  0  0  0  0
   -0.4802   -6.1453    4.0593 H   0  0  0  0  0  0  0  0  0  0  0  0
    1.1441   -5.9872    4.7257 H   0  0  0  0  0  0  0  0  0  0  0  0
    4.2567    1.4869    0.9033 H   0  0  0  0  0  0  0  0  0  0  0  0
    4.3127   -0.2860    1.1513 H   0  0  0  0  0  0  0  0  0  0  0  0
    3.6664    0.7773    2.4288 H   0  0  0  0  0  0  0  0  0  0  0  0
    2.6187   -3.9206    5.4650 H   0  0  0  0  0  0  0  0  0  0  0  0
    3.4630   -2.8099    4.4226 H   0  0  0  0  0  0  0  0  0  0  0  0
    5.3791   -5.7587    4.1650 H   0  0  0  0  0  0  0  0  0  0  0  0
  1  5  2  0  0  0  0
  1  9  1  0  0  0  0
  2  6  1  0  0  0  0
  2  9  2  0  0  0  0
  3  4  2  0  0  0  0
  3 11  1  0  0  0  0
  4 12  1  0  0  0  0
  5 13  1  0  0  0  0
  6 13  2  0  0  0  0
  7  8  1  0  0  0  0
  7 12  2  0  0  0  0
  8 10  1  0  0  0  0
  8 11  2  0  0  0  0
  9 15  1  0  0  0  0
 10 14  2  0  0  0  0
 10 19  1  0  0  0  0
 11 20  1  0  0  0  0
 12 24  1  0  0  0  0
 13 25  1  0  0  0  0
 14 17  1  0  0  0  0
 14 20  1  0  0  0  0
 15 20  1  0  0  0  0
 15 21  2  0  0  0  0
 16 19  1  0  0  0  0
 16 22  2  0  0  0  0
 16 23  1  0  0  0  0
 18 24  1  0  0  0  0
  1 26  1  0  0  0  0
  2 27  1  0  0  0  0
  3 28  1  0  0  0  0
  4 29  1  0  0  0  0
  5 30  1  0  0  0  0
  6 31  1  0  0  0  0
  7 32  1  0  0  0  0
 17 33  1  0  0  0  0
 17 34  1  0  0  0  0
 17 35  1  0  0  0  0
 18 36  1  0  0  0  0
 18 37  1  0  0  0  0
 18 38  1  0  0  0  0
 19 39  1  0  0  0  0
 19 40  1  0  0  0  0
 23 41  1  0  0  0  0
M  END
$$$$
