2-(diethylamino)-~{N}-(2,6-dimethylphenyl)acetamide
  -OEChem-02121815223D

 39 39  0     0  0  0  0  0  0999 V2000
   -4.9539   -4.1459   -1.3490 C   0  0  0  0  0  0  0  0  0  0  0  0
   -4.3707   -3.2415   -2.2364 C   0  0  0  0  0  0  0  0  0  0  0  0
   -4.6169   -4.1111    0.0041 C   0  0  0  0  0  0  0  0  0  0  0  0
   -3.4503   -2.3025   -1.7708 C   0  0  0  0  0  0  0  0  0  0  0  0
   -3.6966   -3.1720    0.4698 C   0  0  0  0  0  0  0  0  0  0  0  0
   -3.1133   -2.2677   -0.4177 C   0  0  0  0  0  0  0  0  0  0  0  0
   -0.9638   -1.5600    0.6883 C   0  0  0  0  0  0  0  0  0  0  0  0
   -2.8424   -1.3468   -2.7460 C   0  0  0  0  0  0  0  0  0  0  0  0
   -3.3565   -3.1598    1.9249 C   0  0  0  0  0  0  0  0  0  0  0  0
    1.9387    1.1919    2.1417 C   0  0  0  0  0  0  0  0  0  0  0  0
    2.1594   -0.2450   -1.8008 C   0  0  0  0  0  0  0  0  0  0  0  0
   -0.2717   -0.2549    1.0309 C   0  0  0  0  0  0  0  0  0  0  0  0
    1.7004    1.0706    0.6750 C   0  0  0  0  0  0  0  0  0  0  0  0
    0.8488   -0.3149   -1.0936 C   0  0  0  0  0  0  0  0  0  0  0  0
   -2.1793   -1.3152    0.0548 N   0  0  0  0  0  0  0  0  0  0  0  0
    1.0221   -0.1843    0.3527 N   0  0  0  0  0  0  0  0  0  0  0  0
   -0.4672   -2.6514    0.9484 O   0  0  0  0  0  0  0  0  0  0  0  0
   -5.6708   -4.8770   -1.7114 H   0  0  0  0  0  0  0  0  0  0  0  0
   -4.6395   -3.2771   -3.2889 H   0  0  0  0  0  0  0  0  0  0  0  0
   -5.0776   -4.8198    0.6873 H   0  0  0  0  0  0  0  0  0  0  0  0
   -3.4538   -0.4405   -2.8195 H   0  0  0  0  0  0  0  0  0  0  0  0
   -1.8285   -1.0619   -2.4405 H   0  0  0  0  0  0  0  0  0  0  0  0
   -2.7617   -1.7972   -3.7427 H   0  0  0  0  0  0  0  0  0  0  0  0
   -2.5048   -3.8210    2.1206 H   0  0  0  0  0  0  0  0  0  0  0  0
   -3.0999   -2.1485    2.2626 H   0  0  0  0  0  0  0  0  0  0  0  0
   -4.2064   -3.4939    2.5324 H   0  0  0  0  0  0  0  0  0  0  0  0
    0.9929    1.1761    2.6939 H   0  0  0  0  0  0  0  0  0  0  0  0
    2.5803    0.3801    2.5013 H   0  0  0  0  0  0  0  0  0  0  0  0
    2.4410    2.1421    2.3590 H   0  0  0  0  0  0  0  0  0  0  0  0
    2.6544    0.7138   -1.6125 H   0  0  0  0  0  0  0  0  0  0  0  0
    2.8184   -1.0602   -1.4828 H   0  0  0  0  0  0  0  0  0  0  0  0
    2.0032   -0.3380   -2.8823 H   0  0  0  0  0  0  0  0  0  0  0  0
   -0.1215   -0.1890    2.1131 H   0  0  0  0  0  0  0  0  0  0  0  0
   -0.9049    0.5785    0.7108 H   0  0  0  0  0  0  0  0  0  0  0  0
    2.6488    1.0870    0.1298 H   0  0  0  0  0  0  0  0  0  0  0  0
    1.0725    1.8908    0.3148 H   0  0  0  0  0  0  0  0  0  0  0  0
    0.3600   -1.2748   -1.2859 H   0  0  0  0  0  0  0  0  0  0  0  0
    0.1862    0.4904   -1.4239 H   0  0  0  0  0  0  0  0  0  0  0  0
   -2.4390   -0.3421   -0.0925 H   0  0  0  0  0  0  0  0  0  0  0  0
  1  2  2  0  0  0  0
  1  3  1  0  0  0  0
  2  4  1  0  0  0  0
  3  5  2  0  0  0  0
  4  6  2  0  0  0  0
  4  8  1  0  0  0  0
  5  6  1  0  0  0  0
  5  9  1  0  0  0  0
  6 15  1  0  0  0  0
  7 12  1  0  0  0  0
  7 15  1  0  0  0  0
  7 17  2  0  0  0  0
 10 13  1  0  0  0  0
 11 14  1  0  0  0  0
 12 16  1  0  0  0  0
 13 16  1  0  0  0  0
 14 16  1  0  0  0  0
  1 18  1  0  0  0  0
  2 19  1  0  0  0  0
  3 20  1  0  0  0  0
  8 21  1  0  0  0  0
  8 22  1  0  0  0  0
  8 23  1  0  0  0  0
  9 24  1  0  0  0  0
  9 25  1  0  0  0  0
  9 26  1  0  0  0  0
 10 27  1  0  0  0  0
 10 28  1  0  0  0  0
 10 29  1  0  0  0  0
 11 30  1  0  0  0  0
 11 31  1  0  0  0  0
 11 32  1  0  0  0  0
 12 33  1  0  0  0  0
 12 34  1  0  0  0  0
 13 35  1  0  0  0  0
 13 36  1  0  0  0  0
 14 37  1  0  0  0  0
 14 38  1  0  0  0  0
 15 39  1  0  0  0  0
M  END
$$$$
