2-(2,6-dichloro-3-methyl-anilino)benzoic acid
  -OEChem-02121815223D

 30 31  0     0  0  0  0  0  0999 V2000
    1.9064   -1.0197   -0.1114 C   0  0  0  0  0  0  0  0  0  0  0  0
    1.3625    0.0572    0.5886 C   0  0  0  0  0  0  0  0  0  0  0  0
    2.3969   -2.1262    0.5821 C   0  0  0  0  0  0  0  0  0  0  0  0
    0.2887    1.6865    6.8826 C   0  0  0  0  0  0  0  0  0  0  0  0
    1.3092    0.0278    1.9821 C   0  0  0  0  0  0  0  0  0  0  0  0
   -0.5599    0.7084    6.3642 C   0  0  0  0  0  0  0  0  0  0  0  0
    2.3436   -2.1556    1.9756 C   0  0  0  0  0  0  0  0  0  0  0  0
    1.6205    1.7434    6.4717 C   0  0  0  0  0  0  0  0  0  0  0  0
    1.7997   -1.0786    2.6757 C   0  0  0  0  0  0  0  0  0  0  0  0
    1.2551   -0.1562    5.0243 C   0  0  0  0  0  0  0  0  0  0  0  0
   -0.0767   -0.2130    5.4351 C   0  0  0  0  0  0  0  0  0  0  0  0
    2.1037    0.8220    5.5426 C   0  0  0  0  0  0  0  0  0  0  0  0
    2.8649   -3.3258    2.6709 C   0  0  0  0  0  0  0  0  0  0  0  0
    2.4914    2.8102    7.0537 C   0  0  0  0  0  0  0  0  0  0  0  0
    1.7380   -1.0876    4.0870 N   0  0  0  0  0  0  0  0  0  0  0  0
    3.3657   -3.3208    3.7981 O   0  0  0  0  0  0  0  0  0  0  0  0
    2.7415   -4.4625    1.9344 O   0  0  0  0  0  0  0  0  0  0  0  0
   -1.1671   -1.4054    4.8219 Cl  0  0  0  0  0  0  0  0  0  0  0  0
    3.7614    0.9018    5.0387 Cl  0  0  0  0  0  0  0  0  0  0  0  0
    1.9475   -0.9976   -1.1964 H   0  0  0  0  0  0  0  0  0  0  0  0
    0.9812    0.9188    0.0484 H   0  0  0  0  0  0  0  0  0  0  0  0
    2.8194   -2.9580    0.0244 H   0  0  0  0  0  0  0  0  0  0  0  0
   -0.0985    2.4011    7.6043 H   0  0  0  0  0  0  0  0  0  0  0  0
    0.8830    0.8730    2.5165 H   0  0  0  0  0  0  0  0  0  0  0  0
   -1.5949    0.6777    6.6956 H   0  0  0  0  0  0  0  0  0  0  0  0
    2.9751    2.4470    7.9672 H   0  0  0  0  0  0  0  0  0  0  0  0
    3.2682    3.1169    6.3434 H   0  0  0  0  0  0  0  0  0  0  0  0
    1.9083    3.7062    7.2978 H   0  0  0  0  0  0  0  0  0  0  0  0
    2.1177   -1.9318    4.5029 H   0  0  0  0  0  0  0  0  0  0  0  0
    3.0889   -5.2564    2.3942 H   0  0  0  0  0  0  0  0  0  0  0  0
  1  2  2  0  0  0  0
  1  3  1  0  0  0  0
  2  5  1  0  0  0  0
  3  7  2  0  0  0  0
  4  6  2  0  0  0  0
  4  8  1  0  0  0  0
  5  9  2  0  0  0  0
  6 11  1  0  0  0  0
  7  9  1  0  0  0  0
  7 13  1  0  0  0  0
  8 12  2  0  0  0  0
  8 14  1  0  0  0  0
  9 15  1  0  0  0  0
 10 11  2  0  0  0  0
 10 12  1  0  0  0  0
 10 15  1  0  0  0  0
 11 18  1  0  0  0  0
 12 19  1  0  0  0  0
 13 16  2  0  0  0  0
 13 17  1  0  0  0  0
  1 20  1  0  0  0  0
  2 21  1  0  0  0  0
  3 22  1  0  0  0  0
  4 23  1  0  0  0  0
  5 24  1  0  0  0  0
  6 25  1  0  0  0  0
 14 26  1  0  0  0  0
 14 27  1  0  0  0  0
 14 28  1  0  0  0  0
 15 29  1  0  0  0  0
 17 30  1  0  0  0  0
M  END
$$$$
