4-amino-~{N}-(4-methylpyrimidin-2-yl)benzenesulfonamide
  -OEChem-02121815223D

 30 31  0     0  0  0  0  0  0999 V2000
    2.8245   -1.7448    1.9921 C   0  0  0  0  0  0  0  0  0  0  0  0
    1.9387   -0.9393   -0.1064 C   0  0  0  0  0  0  0  0  0  0  0  0
    1.7460   -1.1728    2.6669 C   0  0  0  0  0  0  0  0  0  0  0  0
    0.8602   -0.3673    0.5684 C   0  0  0  0  0  0  0  0  0  0  0  0
    1.5289    4.0786    0.0801 C   0  0  0  0  0  0  0  0  0  0  0  0
    0.1922    3.7423    0.1482 C   0  0  0  0  0  0  0  0  0  0  0  0
    2.9209   -1.6280    0.6055 C   0  0  0  0  0  0  0  0  0  0  0  0
    0.7638   -0.4841    1.9551 C   0  0  0  0  0  0  0  0  0  0  0  0
    2.3160    3.6084    1.1114 C   0  0  0  0  0  0  0  0  0  0  0  0
    0.5253    2.6051    2.0880 C   0  0  0  0  0  0  0  0  0  0  0  0
    3.7748    3.9206    1.1238 C   0  0  0  0  0  0  0  0  0  0  0  0
   -0.3454    3.0043    1.1415 N   0  0  0  0  0  0  0  0  0  0  0  0
    1.8456    2.8663    2.1353 N   0  0  0  0  0  0  0  0  0  0  0  0
    4.0113   -2.2061   -0.0773 N   0  0  0  0  0  0  0  0  0  0  0  0
   -0.0119    1.8156    3.1634 N   0  0  0  0  0  0  0  0  0  0  0  0
   -0.7576   -0.4872    4.0553 O   0  0  0  0  0  0  0  0  0  0  0  0
   -1.7154    0.3227    1.8814 O   0  0  0  0  0  0  0  0  0  0  0  0
   -0.5862    0.2327    2.7989 S   0  0  0  0  0  0  0  0  0  0  0  0
    3.5843   -2.2790    2.5568 H   0  0  0  0  0  0  0  0  0  0  0  0
    2.0036   -0.8432   -1.1873 H   0  0  0  0  0  0  0  0  0  0  0  0
    1.6812   -1.2699    3.7473 H   0  0  0  0  0  0  0  0  0  0  0  0
    0.1009    0.1671    0.0036 H   0  0  0  0  0  0  0  0  0  0  0  0
    1.9242    4.6736   -0.7331 H   0  0  0  0  0  0  0  0  0  0  0  0
   -0.5045    4.0677   -0.6169 H   0  0  0  0  0  0  0  0  0  0  0  0
    3.9596    4.8583    1.6618 H   0  0  0  0  0  0  0  0  0  0  0  0
    4.3488    3.1212    1.6098 H   0  0  0  0  0  0  0  0  0  0  0  0
    4.1691    4.0204    0.1043 H   0  0  0  0  0  0  0  0  0  0  0  0
    4.7328   -2.6564    0.4485 H   0  0  0  0  0  0  0  0  0  0  0  0
    4.0930   -2.0747   -1.0652 H   0  0  0  0  0  0  0  0  0  0  0  0
    0.4771    1.9224    4.0620 H   0  0  0  0  0  0  0  0  0  0  0  0
  1  3  2  0  0  0  0
  1  7  1  0  0  0  0
  2  4  1  0  0  0  0
  2  7  2  0  0  0  0
  3  8  1  0  0  0  0
  4  8  2  0  0  0  0
  5  6  1  0  0  0  0
  5  9  2  0  0  0  0
  6 12  2  0  0  0  0
  7 14  1  0  0  0  0
  8 18  1  0  0  0  0
  9 11  1  0  0  0  0
  9 13  1  0  0  0  0
 10 12  1  0  0  0  0
 10 13  2  0  0  0  0
 10 15  1  0  0  0  0
 15 18  1  0  0  0  0
 16 18  2  0  0  0  0
 17 18  2  0  0  0  0
  1 19  1  0  0  0  0
  2 20  1  0  0  0  0
  3 21  1  0  0  0  0
  4 22  1  0  0  0  0
  5 23  1  0  0  0  0
  6 24  1  0  0  0  0
 11 25  1  0  0  0  0
 11 26  1  0  0  0  0
 11 27  1  0  0  0  0
 14 28  1  0  0  0  0
 14 29  1  0  0  0  0
 15 30  1  0  0  0  0
M  END
$$$$
