4-(1~{H}-benzimidazol-2-yl)thiazole
  -OEChem-02121815223D

 21 23  0     0  0  0  0  0  0999 V2000
    2.0075   -0.4788    0.6046 C   0  0  0  0  0  0  0  0  0  0  0  0
    0.6383   -0.3105    0.8235 C   0  0  0  0  0  0  0  0  0  0  0  0
    2.8602   -0.8780    1.6415 C   0  0  0  0  0  0  0  0  0  0  0  0
    0.0716   -0.5343    2.0827 C   0  0  0  0  0  0  0  0  0  0  0  0
    3.3608   -2.2798    6.9014 C   0  0  0  0  0  0  0  0  0  0  0  0
    1.5103   -2.3639    8.4412 C   0  0  0  0  0  0  0  0  0  0  0  0
    2.3079   -1.1070    2.9131 C   0  0  0  0  0  0  0  0  0  0  0  0
    0.9398   -0.9311    3.1003 C   0  0  0  0  0  0  0  0  0  0  0  0
    2.1285   -1.9476    6.3786 C   0  0  0  0  0  0  0  0  0  0  0  0
    1.9446   -1.5634    4.9672 C   0  0  0  0  0  0  0  0  0  0  0  0
    1.0662   -1.9957    7.2600 N   0  0  0  0  0  0  0  0  0  0  0  0
    2.9153   -1.4999    4.0836 N   0  0  0  0  0  0  0  0  0  0  0  0
    0.7355   -1.2298    4.4230 N   0  0  0  0  0  0  0  0  0  0  0  0
    3.1948   -2.6679    8.5637 S   0  0  0  0  0  0  0  0  0  0  0  0
    2.4185   -0.2976   -0.3852 H   0  0  0  0  0  0  0  0  0  0  0  0
   -0.0001    0.0001   -0.0001 H   0  0  0  0  0  0  0  0  0  0  0  0
    3.9226   -1.0062    1.4616 H   0  0  0  0  0  0  0  0  0  0  0  0
   -0.9909   -0.4042    2.2548 H   0  0  0  0  0  0  0  0  0  0  0  0
    4.3234   -2.3144    6.4100 H   0  0  0  0  0  0  0  0  0  0  0  0
    0.8547   -2.4694    9.2947 H   0  0  0  0  0  0  0  0  0  0  0  0
   -0.1527   -1.2066    4.9064 H   0  0  0  0  0  0  0  0  0  0  0  0
  1  2  1  0  0  0  0
  1  3  2  0  0  0  0
  2  4  2  0  0  0  0
  3  7  1  0  0  0  0
  4  8  1  0  0  0  0
  5  9  2  0  0  0  0
  5 14  1  0  0  0  0
  6 11  2  0  0  0  0
  6 14  1  0  0  0  0
  7  8  2  0  0  0  0
  7 12  1  0  0  0  0
  8 13  1  0  0  0  0
  9 10  1  0  0  0  0
  9 11  1  0  0  0  0
 10 12  2  0  0  0  0
 10 13  1  0  0  0  0
  1 15  1  0  0  0  0
  2 16  1  0  0  0  0
  3 17  1  0  0  0  0
  4 18  1  0  0  0  0
  5 19  1  0  0  0  0
  6 20  1  0  0  0  0
 13 21  1  0  0  0  0
M  END
$$$$
