1-butyl-3-(p-tolylsulfonyl)urea
  -OEChem-02121815223D

 36 36  0     0  0  0  0  0  0999 V2000
   -1.3906    1.3269    8.8256 C   0  0  0  0  0  0  0  0  0  0  0  0
   -0.5475    3.4610    9.5817 C   0  0  0  0  0  0  0  0  0  0  0  0
   -0.5576    1.3934    7.7088 C   0  0  0  0  0  0  0  0  0  0  0  0
    0.2856    3.5275    8.4649 C   0  0  0  0  0  0  0  0  0  0  0  0
   -1.3856    2.3607    9.7620 C   0  0  0  0  0  0  0  0  0  0  0  0
    0.2805    2.4937    7.5285 C   0  0  0  0  0  0  0  0  0  0  0  0
   -0.6760    2.7434    4.1858 C   0  0  0  0  0  0  0  0  0  0  0  0
   -2.2767    2.2902   10.9558 C   0  0  0  0  0  0  0  0  0  0  0  0
   -5.5032    4.8305    4.0347 C   0  0  0  0  0  0  0  0  0  0  0  0
   -4.0920    4.7545    3.4731 C   0  0  0  0  0  0  0  0  0  0  0  0
   -3.7349    3.3276    3.0503 C   0  0  0  0  0  0  0  0  0  0  0  0
   -2.3462    3.2312    2.4274 C   0  0  0  0  0  0  0  0  0  0  0  0
   -1.3084    3.6305    3.3371 N   0  0  0  0  0  0  0  0  0  0  0  0
    0.3226    3.3741    4.9936 N   0  0  0  0  0  0  0  0  0  0  0  0
   -0.9270    1.5437    4.2531 O   0  0  0  0  0  0  0  0  0  0  0  0
    2.4607    3.4347    6.4409 O   0  0  0  0  0  0  0  0  0  0  0  0
    1.5584    1.2133    5.6739 O   0  0  0  0  0  0  0  0  0  0  0  0
    1.3378    2.5772    6.1145 S   0  0  0  0  0  0  0  0  0  0  0  0
   -2.0405    0.4659    8.9576 H   0  0  0  0  0  0  0  0  0  0  0  0
   -0.5372    4.2713   10.3059 H   0  0  0  0  0  0  0  0  0  0  0  0
   -0.5697    0.5828    6.9850 H   0  0  0  0  0  0  0  0  0  0  0  0
    0.9343    4.3896    8.3340 H   0  0  0  0  0  0  0  0  0  0  0  0
   -1.7628    1.7924   11.7873 H   0  0  0  0  0  0  0  0  0  0  0  0
   -2.5817    3.2920   11.2852 H   0  0  0  0  0  0  0  0  0  0  0  0
   -3.1974    1.7351   10.7335 H   0  0  0  0  0  0  0  0  0  0  0  0
   -5.6178    4.1672    4.8980 H   0  0  0  0  0  0  0  0  0  0  0  0
   -5.7276    5.8516    4.3584 H   0  0  0  0  0  0  0  0  0  0  0  0
   -6.2421    4.5435    3.2798 H   0  0  0  0  0  0  0  0  0  0  0  0
   -4.0114    5.4286    2.6123 H   0  0  0  0  0  0  0  0  0  0  0  0
   -3.3882    5.1122    4.2330 H   0  0  0  0  0  0  0  0  0  0  0  0
   -3.7993    2.6602    3.9186 H   0  0  0  0  0  0  0  0  0  0  0  0
   -4.4709    2.9758    2.3172 H   0  0  0  0  0  0  0  0  0  0  0  0
   -2.2675    3.8570    1.5329 H   0  0  0  0  0  0  0  0  0  0  0  0
   -2.1370    2.1963    2.1385 H   0  0  0  0  0  0  0  0  0  0  0  0
   -1.0283    4.6054    3.3569 H   0  0  0  0  0  0  0  0  0  0  0  0
    0.4681    4.3841    4.8706 H   0  0  0  0  0  0  0  0  0  0  0  0
  1  3  2  0  0  0  0
  1  5  1  0  0  0  0
  2  4  1  0  0  0  0
  2  5  2  0  0  0  0
  3  6  1  0  0  0  0
  4  6  2  0  0  0  0
  5  8  1  0  0  0  0
  6 18  1  0  0  0  0
  7 13  1  0  0  0  0
  7 14  1  0  0  0  0
  7 15  2  0  0  0  0
  9 10  1  0  0  0  0
 10 11  1  0  0  0  0
 11 12  1  0  0  0  0
 12 13  1  0  0  0  0
 14 18  1  0  0  0  0
 16 18  2  0  0  0  0
 17 18  2  0  0  0  0
  1 19  1  0  0  0  0
  2 20  1  0  0  0  0
  3 21  1  0  0  0  0
  4 22  1  0  0  0  0
  8 23  1  0  0  0  0
  8 24  1  0  0  0  0
  8 25  1  0  0  0  0
  9 26  1  0  0  0  0
  9 27  1  0  0  0  0
  9 28  1  0  0  0  0
 10 29  1  0  0  0  0
 10 30  1  0  0  0  0
 11 31  1  0  0  0  0
 11 32  1  0  0  0  0
 12 33  1  0  0  0  0
 12 34  1  0  0  0  0
 13 35  1  0  0  0  0
 14 36  1  0  0  0  0
M  END
$$$$
