2-[3-[4-(3-chlorophenyl)piperazin-1-yl]propyl]-[1,2,4]triazolo[4,3-a]pyridin-3-o
  -OEChem-02121815223D

 48 51  0     0  0  0  0  0  0999 V2000
    0.4026   -1.1940    3.8602 C   0  0  0  0  0  0  0  0  0  0  0  0
    0.5845   -1.2355    2.4779 C   0  0  0  0  0  0  0  0  0  0  0  0
    1.3739   -0.6112    4.6743 C   0  0  0  0  0  0  0  0  0  0  0  0
    2.7091   -0.1117    2.7237 C   0  0  0  0  0  0  0  0  0  0  0  0
    1.7377   -0.6944    1.9097 C   0  0  0  0  0  0  0  0  0  0  0  0
    2.5271   -0.0701    4.1060 C   0  0  0  0  0  0  0  0  0  0  0  0
   -2.1571   -2.4877   -7.9317 C   0  0  0  0  0  0  0  0  0  0  0  0
   -0.8192   -2.5780   -8.0058 C   0  0  0  0  0  0  0  0  0  0  0  0
   -2.8568   -2.5293   -6.6611 C   0  0  0  0  0  0  0  0  0  0  0  0
   -2.1620   -2.6614   -5.5216 C   0  0  0  0  0  0  0  0  0  0  0  0
   -0.0752   -2.7233   -6.7349 C   0  0  0  0  0  0  0  0  0  0  0  0
    0.1110   -2.8946   -4.5552 C   0  0  0  0  0  0  0  0  0  0  0  0
    0.7537   -0.7086   -0.3650 C   0  0  0  0  0  0  0  0  0  0  0  0
    3.0973   -1.4436    0.0030 C   0  0  0  0  0  0  0  0  0  0  0  0
    1.1590   -0.2571   -1.7703 C   0  0  0  0  0  0  0  0  0  0  0  0
    3.4272   -0.9673   -1.4135 C   0  0  0  0  0  0  0  0  0  0  0  0
    3.3735   -1.7509   -4.4114 C   0  0  0  0  0  0  0  0  0  0  0  0
    2.6255   -3.0768   -4.5343 C   0  0  0  0  0  0  0  0  0  0  0  0
    2.5985   -0.6737   -3.6556 C   0  0  0  0  0  0  0  0  0  0  0  0
    1.2062   -2.8272   -6.5684 N   0  0  0  0  0  0  0  0  0  0  0  0
    1.9200   -0.7367    0.5229 N   0  0  0  0  0  0  0  0  0  0  0  0
   -0.8001   -2.7549   -5.5822 N   0  0  0  0  0  0  0  0  0  0  0  0
    1.3616   -2.9374   -5.2042 N   0  0  0  0  0  0  0  0  0  0  0  0
    2.2568   -1.0796   -2.2928 N   0  0  0  0  0  0  0  0  0  0  0  0
   -0.1042   -2.9666   -3.3540 O   0  0  0  0  0  0  0  0  0  0  0  0
    3.7254    0.6477    5.1113 Cl  0  0  0  0  0  0  0  0  0  0  0  0
   -0.4953   -1.6160    4.3021 H   0  0  0  0  0  0  0  0  0  0  0  0
   -0.1785   -1.6916    1.8526 H   0  0  0  0  0  0  0  0  0  0  0  0
    1.2189   -0.5858    5.7499 H   0  0  0  0  0  0  0  0  0  0  0  0
    3.6072    0.3088    2.2762 H   0  0  0  0  0  0  0  0  0  0  0  0
   -2.7539   -2.3799   -8.8309 H   0  0  0  0  0  0  0  0  0  0  0  0
   -0.2788   -2.5490   -8.9426 H   0  0  0  0  0  0  0  0  0  0  0  0
   -3.9375   -2.4518   -6.6601 H   0  0  0  0  0  0  0  0  0  0  0  0
   -2.6281   -2.6985   -4.5453 H   0  0  0  0  0  0  0  0  0  0  0  0
   -0.0018   -0.0151    0.0250 H   0  0  0  0  0  0  0  0  0  0  0  0
    0.2972   -1.7063   -0.4109 H   0  0  0  0  0  0  0  0  0  0  0  0
    2.9085   -2.5254   -0.0012 H   0  0  0  0  0  0  0  0  0  0  0  0
    3.9644   -1.2598    0.6496 H   0  0  0  0  0  0  0  0  0  0  0  0
    0.2817   -0.3423   -2.4231 H   0  0  0  0  0  0  0  0  0  0  0  0
    1.4464    0.8030   -1.7466 H   0  0  0  0  0  0  0  0  0  0  0  0
    3.7866    0.0701   -1.3784 H   0  0  0  0  0  0  0  0  0  0  0  0
    4.2481   -1.5838   -1.7993 H   0  0  0  0  0  0  0  0  0  0  0  0
    3.6094   -1.3879   -5.4193 H   0  0  0  0  0  0  0  0  0  0  0  0
    4.3281   -1.9197   -3.8983 H   0  0  0  0  0  0  0  0  0  0  0  0
    3.2138   -3.8199   -5.0811 H   0  0  0  0  0  0  0  0  0  0  0  0
    2.4143   -3.4791   -3.5384 H   0  0  0  0  0  0  0  0  0  0  0  0
    1.6555   -0.4633   -4.1700 H   0  0  0  0  0  0  0  0  0  0  0  0
    3.1658    0.2600   -3.5943 H   0  0  0  0  0  0  0  0  0  0  0  0
  1  2  2  0  0  0  0
  1  3  1  0  0  0  0
  2  5  1  0  0  0  0
  3  6  2  0  0  0  0
  4  5  2  0  0  0  0
  4  6  1  0  0  0  0
  5 21  1  0  0  0  0
  6 26  1  0  0  0  0
  7  8  2  0  0  0  0
  7  9  1  0  0  0  0
  8 11  1  0  0  0  0
  9 10  2  0  0  0  0
 10 22  1  0  0  0  0
 11 20  2  0  0  0  0
 11 22  1  0  0  0  0
 12 22  1  0  0  0  0
 12 23  1  0  0  0  0
 12 25  2  0  0  0  0
 13 15  1  0  0  0  0
 13 21  1  0  0  0  0
 14 16  1  0  0  0  0
 14 21  1  0  0  0  0
 15 24  1  0  0  0  0
 16 24  1  0  0  0  0
 17 18  1  0  0  0  0
 17 19  1  0  0  0  0
 18 23  1  0  0  0  0
 19 24  1  0  0  0  0
 20 23  1  0  0  0  0
  1 27  1  0  0  0  0
  2 28  1  0  0  0  0
  3 29  1  0  0  0  0
  4 30  1  0  0  0  0
  7 31  1  0  0  0  0
  8 32  1  0  0  0  0
  9 33  1  0  0  0  0
 10 34  1  0  0  0  0
 13 35  1  0  0  0  0
 13 36  1  0  0  0  0
 14 37  1  0  0  0  0
 14 38  1  0  0  0  0
 15 39  1  0  0  0  0
 15 40  1  0  0  0  0
 16 41  1  0  0  0  0
 16 42  1  0  0  0  0
 17 43  1  0  0  0  0
 17 44  1  0  0  0  0
 18 45  1  0  0  0  0
 18 46  1  0  0  0  0
 19 47  1  0  0  0  0
 19 48  1  0  0  0  0
M  END
$$$$
