naphthalen-1-ol
  -OEChem-02121815203D

 19 20  0     0  0  0  0  0  0999 V2000
   -0.4966   -2.0341    0.4940 C   0  0  0  0  0  0  0  0  0  0  0  0
    0.3500   -1.0275    0.0392 C   0  0  0  0  0  0  0  0  0  0  0  0
    3.0228   -5.3167   -0.2210 C   0  0  0  0  0  0  0  0  0  0  0  0
   -0.0479   -3.3542    0.5448 C   0  0  0  0  0  0  0  0  0  0  0  0
    1.6484   -1.3369   -0.3665 C   0  0  0  0  0  0  0  0  0  0  0  0
    1.7243   -5.0072    0.1848 C   0  0  0  0  0  0  0  0  0  0  0  0
    3.8693   -4.3100   -0.6758 C   0  0  0  0  0  0  0  0  0  0  0  0
    1.2560   -3.6839    0.1403 C   0  0  0  0  0  0  0  0  0  0  0  0
    2.1168   -2.6602   -0.3222 C   0  0  0  0  0  0  0  0  0  0  0  0
    3.4207   -2.9899   -0.7267 C   0  0  0  0  0  0  0  0  0  0  0  0
    4.2871   -2.0364   -1.1801 O   0  0  0  0  0  0  0  0  0  0  0  0
   -1.5073   -1.7925    0.8098 H   0  0  0  0  0  0  0  0  0  0  0  0
   -0.0002   -0.0000    0.0000 H   0  0  0  0  0  0  0  0  0  0  0  0
    3.3726   -6.3442   -0.1817 H   0  0  0  0  0  0  0  0  0  0  0  0
   -0.7269   -4.1249    0.9038 H   0  0  0  0  0  0  0  0  0  0  0  0
    2.2840   -0.5265   -0.7166 H   0  0  0  0  0  0  0  0  0  0  0  0
    1.0800   -5.8101    0.5368 H   0  0  0  0  0  0  0  0  0  0  0  0
    4.8792   -4.5596   -0.9901 H   0  0  0  0  0  0  0  0  0  0  0  0
    5.1352   -2.4429   -1.4130 H   0  0  0  0  0  0  0  0  0  0  0  0
  1  2  1  0  0  0  0
  1  4  2  0  0  0  0
  2  5  2  0  0  0  0
  3  6  2  0  0  0  0
  3  7  1  0  0  0  0
  4  8  1  0  0  0  0
  5  9  1  0  0  0  0
  6  8  1  0  0  0  0
  7 10  2  0  0  0  0
  8  9  2  0  0  0  0
  9 10  1  0  0  0  0
 10 11  1  0  0  0  0
  1 12  1  0  0  0  0
  2 13  1  0  0  0  0
  3 14  1  0  0  0  0
  4 15  1  0  0  0  0
  5 16  1  0  0  0  0
  6 17  1  0  0  0  0
  7 18  1  0  0  0  0
 11 19  1  0  0  0  0
M  END
$$$$
