2-amino-3-bromo-benzoic acid
  -OEChem-02121815193D

 17 17  0     0  0  0  0  0  0999 V2000
    1.8851   -1.0363   -0.1124 C   0  0  0  0  0  0  0  0  0  0  0  0
    0.8066   -0.4630    0.5610 C   0  0  0  0  0  0  0  0  0  0  0  0
    2.9210   -1.6309    0.6081 C   0  0  0  0  0  0  0  0  0  0  0  0
    0.7638   -0.4841    1.9551 C   0  0  0  0  0  0  0  0  0  0  0  0
    1.7997   -1.0786    2.6757 C   0  0  0  0  0  0  0  0  0  0  0  0
    2.8783   -1.6520    2.0022 C   0  0  0  0  0  0  0  0  0  0  0  0
   -0.3802    0.1242    2.6238 C   0  0  0  0  0  0  0  0  0  0  0  0
    1.7431   -1.0937    4.0901 N   0  0  0  0  0  0  0  0  0  0  0  0
   -0.8417   -0.2314    3.7107 O   0  0  0  0  0  0  0  0  0  0  0  0
   -0.9064    1.1561    1.9115 O   0  0  0  0  0  0  0  0  0  0  0  0
    4.3171   -2.4746    2.9292 Br  0  0  0  0  0  0  0  0  0  0  0  0
    1.9178   -1.0210   -1.1980 H   0  0  0  0  0  0  0  0  0  0  0  0
    0.0054   -0.0037   -0.0124 H   0  0  0  0  0  0  0  0  0  0  0  0
    3.7529   -2.0723    0.0651 H   0  0  0  0  0  0  0  0  0  0  0  0
    0.9842   -0.6360    4.5477 H   0  0  0  0  0  0  0  0  0  0  0  0
    2.5095   -1.4784    4.5995 H   0  0  0  0  0  0  0  0  0  0  0  0
   -1.6766    1.5729    2.3537 H   0  0  0  0  0  0  0  0  0  0  0  0
  1  2  2  0  0  0  0
  1  3  1  0  0  0  0
  2  4  1  0  0  0  0
  3  6  2  0  0  0  0
  4  5  2  0  0  0  0
  4  7  1  0  0  0  0
  5  6  1  0  0  0  0
  5  8  1  0  0  0  0
  6 11  1  0  0  0  0
  7  9  2  0  0  0  0
  7 10  1  0  0  0  0
  1 12  1  0  0  0  0
  2 13  1  0  0  0  0
  3 14  1  0  0  0  0
  8 15  1  0  0  0  0
  8 16  1  0  0  0  0
 10 17  1  0  0  0  0
M  END
$$$$
