5,5-diphenylimidazolidine-2,4-dione
  -OEChem-02121815203D

 31 33  0     0  0  0  0  0  0999 V2000
    0.1543    4.8764   -1.3202 C   0  0  0  0  0  0  0  0  0  0  0  0
    0.1793    1.4714    5.0399 C   0  0  0  0  0  0  0  0  0  0  0  0
   -0.7931    4.0437   -0.7248 C   0  0  0  0  0  0  0  0  0  0  0  0
    1.5131    4.5857   -1.1985 C   0  0  0  0  0  0  0  0  0  0  0  0
    0.9995    2.4833    4.5409 C   0  0  0  0  0  0  0  0  0  0  0  0
   -0.2373    0.4354    4.2039 C   0  0  0  0  0  0  0  0  0  0  0  0
   -0.3818    2.9204   -0.0075 C   0  0  0  0  0  0  0  0  0  0  0  0
    1.9245    3.4624   -0.4812 C   0  0  0  0  0  0  0  0  0  0  0  0
    1.4030    2.4592    3.2059 C   0  0  0  0  0  0  0  0  0  0  0  0
    0.1663    0.4113    2.8689 C   0  0  0  0  0  0  0  0  0  0  0  0
    0.9770    2.6297    0.1143 C   0  0  0  0  0  0  0  0  0  0  0  0
    0.9864    1.4232    2.3699 C   0  0  0  0  0  0  0  0  0  0  0  0
    2.9511    1.1219    0.8485 C   0  0  0  0  0  0  0  0  0  0  0  0
    2.0095   -0.6234   -0.2512 C   0  0  0  0  0  0  0  0  0  0  0  0
    1.4295    1.3963    0.9022 C   0  0  0  0  0  0  0  0  0  0  0  0
    3.1827   -0.0439    0.1607 N   0  0  0  0  0  0  0  0  0  0  0  0
    0.9782    0.2062    0.1805 N   0  0  0  0  0  0  0  0  0  0  0  0
    3.8160    1.8296    1.3513 O   0  0  0  0  0  0  0  0  0  0  0  0
    1.8868   -1.6682   -0.8753 O   0  0  0  0  0  0  0  0  0  0  0  0
   -0.1662    5.7503   -1.8799 H   0  0  0  0  0  0  0  0  0  0  0  0
   -0.1338    1.4896    6.0798 H   0  0  0  0  0  0  0  0  0  0  0  0
   -1.8513    4.2693   -0.8204 H   0  0  0  0  0  0  0  0  0  0  0  0
    2.2510    5.2332   -1.6629 H   0  0  0  0  0  0  0  0  0  0  0  0
    1.3248    3.2894    5.1920 H   0  0  0  0  0  0  0  0  0  0  0  0
   -0.8749   -0.3532    4.5924 H   0  0  0  0  0  0  0  0  0  0  0  0
   -1.1271    2.2773    0.4533 H   0  0  0  0  0  0  0  0  0  0  0  0
    2.9853    3.2438   -0.3915 H   0  0  0  0  0  0  0  0  0  0  0  0
    2.0419    3.2520    2.8258 H   0  0  0  0  0  0  0  0  0  0  0  0
   -0.1633   -0.3997    2.2249 H   0  0  0  0  0  0  0  0  0  0  0  0
    4.1034   -0.4273   -0.0197 H   0  0  0  0  0  0  0  0  0  0  0  0
   -0.0010    0.0013    0.0039 H   0  0  0  0  0  0  0  0  0  0  0  0
  1  3  2  0  0  0  0
  1  4  1  0  0  0  0
  2  5  2  0  0  0  0
  2  6  1  0  0  0  0
  3  7  1  0  0  0  0
  4  8  2  0  0  0  0
  5  9  1  0  0  0  0
  6 10  2  0  0  0  0
  7 11  2  0  0  0  0
  8 11  1  0  0  0  0
  9 12  2  0  0  0  0
 10 12  1  0  0  0  0
 11 15  1  0  0  0  0
 12 15  1  0  0  0  0
 13 15  1  0  0  0  0
 13 16  1  0  0  0  0
 13 18  2  0  0  0  0
 14 16  1  0  0  0  0
 14 17  1  0  0  0  0
 14 19  2  0  0  0  0
 15 17  1  0  0  0  0
  1 20  1  0  0  0  0
  2 21  1  0  0  0  0
  3 22  1  0  0  0  0
  4 23  1  0  0  0  0
  5 24  1  0  0  0  0
  6 25  1  0  0  0  0
  7 26  1  0  0  0  0
  8 27  1  0  0  0  0
  9 28  1  0  0  0  0
 10 29  1  0  0  0  0
 16 30  1  0  0  0  0
 17 31  1  0  0  0  0
M  END
$$$$
