adamantan-1-amine
  -OEChem-02121815193D

 28 30  0     0  0  0  0  0  0999 V2000
    0.6792    0.7405    0.4401 C   0  0  0  0  0  0  0  0  0  0  0  0
   -1.1825    2.4100    0.6300 C   0  0  0  0  0  0  0  0  0  0  0  0
   -0.7048    0.8435    2.5291 C   0  0  0  0  0  0  0  0  0  0  0  0
    1.2028    3.1824    0.6653 C   0  0  0  0  0  0  0  0  0  0  0  0
    1.6810    1.6141    2.5663 C   0  0  0  0  0  0  0  0  0  0  0  0
   -0.1838    3.2859    2.7571 C   0  0  0  0  0  0  0  0  0  0  0  0
    0.2246    2.1601    0.0613 C   0  0  0  0  0  0  0  0  0  0  0  0
    0.7048    0.5854    1.9700 C   0  0  0  0  0  0  0  0  0  0  0  0
   -1.1670    2.2637    2.1611 C   0  0  0  0  0  0  0  0  0  0  0  0
    1.2382    3.0491    2.2040 C   0  0  0  0  0  0  0  0  0  0  0  0
    2.1619    4.0305    2.7678 N   0  0  0  0  0  0  0  0  0  0  0  0
   -0.0003    0.0001    0.0001 H   0  0  0  0  0  0  0  0  0  0  0  0
    1.6759    0.5437    0.0266 H   0  0  0  0  0  0  0  0  0  0  0  0
   -1.5257    3.4144    0.3531 H   0  0  0  0  0  0  0  0  0  0  0  0
   -1.8945    1.6989    0.1932 H   0  0  0  0  0  0  0  0  0  0  0  0
   -1.4084    0.1047    2.1259 H   0  0  0  0  0  0  0  0  0  0  0  0
   -0.7040    0.7206    3.6192 H   0  0  0  0  0  0  0  0  0  0  0  0
    2.2042    3.0245    0.2430 H   0  0  0  0  0  0  0  0  0  0  0  0
    0.8972    4.1969    0.3763 H   0  0  0  0  0  0  0  0  0  0  0  0
    1.7224    1.4898    3.6566 H   0  0  0  0  0  0  0  0  0  0  0  0
    2.6937    1.4188    2.1894 H   0  0  0  0  0  0  0  0  0  0  0  0
   -0.5229    4.3028    2.5185 H   0  0  0  0  0  0  0  0  0  0  0  0
   -0.1886    3.2024    3.8521 H   0  0  0  0  0  0  0  0  0  0  0  0
    0.2067    2.2643   -1.0293 H   0  0  0  0  0  0  0  0  0  0  0  0
    1.0275   -0.4279    2.2337 H   0  0  0  0  0  0  0  0  0  0  0  0
   -2.1721    2.4407    2.5599 H   0  0  0  0  0  0  0  0  0  0  0  0
    1.8264    4.9567    2.9191 H   0  0  0  0  0  0  0  0  0  0  0  0
    3.1320    3.8025    2.7890 H   0  0  0  0  0  0  0  0  0  0  0  0
  1  7  1  0  0  0  0
  1  8  1  0  0  0  0
  2  7  1  0  0  0  0
  2  9  1  0  0  0  0
  3  8  1  0  0  0  0
  3  9  1  0  0  0  0
  4  7  1  0  0  0  0
  4 10  1  0  0  0  0
  5  8  1  0  0  0  0
  5 10  1  0  0  0  0
  6  9  1  0  0  0  0
  6 10  1  0  0  0  0
 10 11  1  0  0  0  0
  1 12  1  0  0  0  0
  1 13  1  0  0  0  0
  2 14  1  0  0  0  0
  2 15  1  0  0  0  0
  3 16  1  0  0  0  0
  3 17  1  0  0  0  0
  4 18  1  0  0  0  0
  4 19  1  0  0  0  0
  5 20  1  0  0  0  0
  5 21  1  0  0  0  0
  6 22  1  0  0  0  0
  6 23  1  0  0  0  0
  7 24  1  0  0  0  0
  8 25  1  0  0  0  0
  9 26  1  0  0  0  0
 11 27  1  0  0  0  0
 11 28  1  0  0  0  0
M  END
$$$$
