4-[(7-chloro-4-quinolyl)amino]-2-(diethylaminomethyl)phenol
  -OEChem-02121815193D

 47 49  0     0  0  0  0  0  0999 V2000
   -3.2344    3.0280   -2.2372 C   0  0  0  0  0  0  0  0  0  0  0  0
   -2.5058    7.9129   -1.0020 C   0  0  0  0  0  0  0  0  0  0  0  0
   -2.3178    9.0144   -0.1672 C   0  0  0  0  0  0  0  0  0  0  0  0
   -3.7587    1.7851   -2.5803 C   0  0  0  0  0  0  0  0  0  0  0  0
    0.0881    4.6194   -1.7801 C   0  0  0  0  0  0  0  0  0  0  0  0
   -1.1255    6.5709    0.4578 C   0  0  0  0  0  0  0  0  0  0  0  0
   -1.5152    0.9236   -2.8004 C   0  0  0  0  0  0  0  0  0  0  0  0
    0.8683    3.5199   -2.0753 C   0  0  0  0  0  0  0  0  0  0  0  0
   -1.8439    3.2207   -2.1752 C   0  0  0  0  0  0  0  0  0  0  0  0
   -0.9375    7.6725    1.2927 C   0  0  0  0  0  0  0  0  0  0  0  0
   -0.9637    2.1558   -2.4603 C   0  0  0  0  0  0  0  0  0  0  0  0
   -1.9097    6.6911   -0.6895 C   0  0  0  0  0  0  0  0  0  0  0  0
   -1.2893    4.4612   -1.8325 C   0  0  0  0  0  0  0  0  0  0  0  0
   -1.5337    8.8942    0.9801 C   0  0  0  0  0  0  0  0  0  0  0  0
   -2.8976    0.7318   -2.8622 C   0  0  0  0  0  0  0  0  0  0  0  0
    3.2901    8.1438    1.0950 C   0  0  0  0  0  0  0  0  0  0  0  0
    1.3044    8.7083    4.7339 C   0  0  0  0  0  0  0  0  0  0  0  0
   -0.0960    7.5258    2.5174 C   0  0  0  0  0  0  0  0  0  0  0  0
    1.9465    7.5173    1.2523 C   0  0  0  0  0  0  0  0  0  0  0  0
    1.9898    8.0241    3.6005 C   0  0  0  0  0  0  0  0  0  0  0  0
    0.3734    2.3063   -2.4102 N   0  0  0  0  0  0  0  0  0  0  0  0
   -2.0991    5.5816   -1.5310 N   0  0  0  0  0  0  0  0  0  0  0  0
    1.2026    8.1293    2.3631 N   0  0  0  0  0  0  0  0  0  0  0  0
   -1.3611    9.9802    1.7848 O   0  0  0  0  0  0  0  0  0  0  0  0
   -3.5339   -0.8094   -3.2890 Cl  0  0  0  0  0  0  0  0  0  0  0  0
   -3.9313    3.8347   -2.0224 H   0  0  0  0  0  0  0  0  0  0  0  0
   -3.1185    8.0180   -1.8939 H   0  0  0  0  0  0  0  0  0  0  0  0
   -2.7860    9.9629   -0.4159 H   0  0  0  0  0  0  0  0  0  0  0  0
   -4.8366    1.6544   -2.6238 H   0  0  0  0  0  0  0  0  0  0  0  0
    0.5463    5.5667   -1.5174 H   0  0  0  0  0  0  0  0  0  0  0  0
   -0.6602    5.6185    0.7020 H   0  0  0  0  0  0  0  0  0  0  0  0
   -0.8486    0.0912   -3.0231 H   0  0  0  0  0  0  0  0  0  0  0  0
    1.9512    3.5843   -2.0492 H   0  0  0  0  0  0  0  0  0  0  0  0
    3.1995    9.2144    0.8819 H   0  0  0  0  0  0  0  0  0  0  0  0
    3.8935    8.0053    1.9987 H   0  0  0  0  0  0  0  0  0  0  0  0
    3.8220    7.6764    0.2576 H   0  0  0  0  0  0  0  0  0  0  0  0
    1.1649    9.7736    4.5205 H   0  0  0  0  0  0  0  0  0  0  0  0
    0.3301    8.2497    4.9348 H   0  0  0  0  0  0  0  0  0  0  0  0
    1.9129    8.6225    5.6422 H   0  0  0  0  0  0  0  0  0  0  0  0
   -0.5783    7.9950    3.3856 H   0  0  0  0  0  0  0  0  0  0  0  0
    0.0606    6.4694    2.7724 H   0  0  0  0  0  0  0  0  0  0  0  0
    2.0443    6.4484    1.4649 H   0  0  0  0  0  0  0  0  0  0  0  0
    1.3510    7.6427    0.3432 H   0  0  0  0  0  0  0  0  0  0  0  0
    2.1259    6.9609    3.8202 H   0  0  0  0  0  0  0  0  0  0  0  0
    2.9693    8.4731    3.4115 H   0  0  0  0  0  0  0  0  0  0  0  0
   -2.9874    5.5792   -2.0200 H   0  0  0  0  0  0  0  0  0  0  0  0
   -1.8406   10.7429    1.4252 H   0  0  0  0  0  0  0  0  0  0  0  0
  1  4  2  0  0  0  0
  1  9  1  0  0  0  0
  2  3  2  0  0  0  0
  2 12  1  0  0  0  0
  3 14  1  0  0  0  0
  4 15  1  0  0  0  0
  5  8  2  0  0  0  0
  5 13  1  0  0  0  0
  6 10  1  0  0  0  0
  6 12  2  0  0  0  0
  7 11  1  0  0  0  0
  7 15  2  0  0  0  0
  8 21  1  0  0  0  0
  9 11  1  0  0  0  0
  9 13  2  0  0  0  0
 10 14  2  0  0  0  0
 10 18  1  0  0  0  0
 11 21  2  0  0  0  0
 12 22  1  0  0  0  0
 13 22  1  0  0  0  0
 14 24  1  0  0  0  0
 15 25  1  0  0  0  0
 16 19  1  0  0  0  0
 17 20  1  0  0  0  0
 18 23  1  0  0  0  0
 19 23  1  0  0  0  0
 20 23  1  0  0  0  0
  1 26  1  0  0  0  0
  2 27  1  0  0  0  0
  3 28  1  0  0  0  0
  4 29  1  0  0  0  0
  5 30  1  0  0  0  0
  6 31  1  0  0  0  0
  7 32  1  0  0  0  0
  8 33  1  0  0  0  0
 16 34  1  0  0  0  0
 16 35  1  0  0  0  0
 16 36  1  0  0  0  0
 17 37  1  0  0  0  0
 17 38  1  0  0  0  0
 17 39  1  0  0  0  0
 18 40  1  0  0  0  0
 18 41  1  0  0  0  0
 19 42  1  0  0  0  0
 19 43  1  0  0  0  0
 20 44  1  0  0  0  0
 20 45  1  0  0  0  0
 22 46  1  0  0  0  0
 24 47  1  0  0  0  0
M  END
$$$$
