1-butyl-~{N}-(2,6-dimethylphenyl)piperidine-2-carboxamide
  -OEChem-02121815193D

 49 50  0     1  0  0  0  0  0999 V2000
   -2.5651    4.3348    5.4923 C   0  0  0  0  0  0  0  0  0  0  0  0
   -3.4797    3.4063    4.9954 C   0  0  0  0  0  0  0  0  0  0  0  0
   -1.3374    4.5144    4.8549 C   0  0  0  0  0  0  0  0  0  0  0  0
   -3.1665    2.6571    3.8612 C   0  0  0  0  0  0  0  0  0  0  0  0
   -1.0243    3.7653    3.7207 C   0  0  0  0  0  0  0  0  0  0  0  0
   -1.9388    2.8366    3.2238 C   0  0  0  0  0  0  0  0  0  0  0  0
   -0.5569    1.1989    1.9076 C   0  0  0  0  0  0  0  0  0  0  0  0
    0.4140    0.9235   -1.7685 C   0  0  0  0  0  0  0  0  0  0  0  0
    1.0129   -0.4710   -1.6549 C   0  0  0  0  0  0  0  0  0  0  0  0
    0.2262    1.5244   -0.3824 C   0  0  0  0  0  0  0  0  0  0  0  0
    0.1814   -1.3496   -0.7216 C   0  0  0  0  0  0  0  0  0  0  0  0
   -0.5687    0.5884    0.5382 C   0  0  1  0  0  0  0  0  0  0  0  0
   -4.1669    1.6700    3.3528 C   0  0  0  0  0  0  0  0  0  0  0  0
    0.2988    3.9809    3.0601 C   0  0  0  0  0  0  0  0  0  0  0  0
    2.0241   -3.6370    3.3402 C   0  0  0  0  0  0  0  0  0  0  0  0
    1.2638   -2.4294    2.8145 C   0  0  0  0  0  0  0  0  0  0  0  0
    0.0699   -2.8515    1.9552 C   0  0  0  0  0  0  0  0  0  0  0  0
   -0.7475   -1.6618    1.4629 C   0  0  0  0  0  0  0  0  0  0  0  0
    0.0385   -0.7529    0.6188 N   0  0  1  0  0  0  0  0  0  0  0  0
   -1.6209    2.0765    2.0734 N   0  0  0  0  0  0  0  0  0  0  0  0
    0.3146    0.9044    2.7191 O   0  0  0  0  0  0  0  0  0  0  0  0
   -2.8089    4.9184    6.3753 H   0  0  0  0  0  0  0  0  0  0  0  0
   -4.4333    3.2734    5.4995 H   0  0  0  0  0  0  0  0  0  0  0  0
   -0.6322    5.2409    5.2499 H   0  0  0  0  0  0  0  0  0  0  0  0
    1.0648    1.5652   -2.3724 H   0  0  0  0  0  0  0  0  0  0  0  0
   -0.5540    0.8699   -2.2814 H   0  0  0  0  0  0  0  0  0  0  0  0
    1.0660   -0.9322   -2.6475 H   0  0  0  0  0  0  0  0  0  0  0  0
    2.0413   -0.4015   -1.2783 H   0  0  0  0  0  0  0  0  0  0  0  0
    1.2123    1.7395    0.0521 H   0  0  0  0  0  0  0  0  0  0  0  0
   -0.2872    2.4902   -0.4678 H   0  0  0  0  0  0  0  0  0  0  0  0
   -0.8041   -1.5276   -1.1727 H   0  0  0  0  0  0  0  0  0  0  0  0
    0.6814   -2.3226   -0.6400 H   0  0  0  0  0  0  0  0  0  0  0  0
   -1.6095    0.5286    0.1957 H   0  0  0  0  0  0  0  0  0  0  0  0
   -4.8361    2.1477    2.6284 H   0  0  0  0  0  0  0  0  0  0  0  0
   -3.6723    0.8209    2.8661 H   0  0  0  0  0  0  0  0  0  0  0  0
   -4.7711    1.2619    4.1721 H   0  0  0  0  0  0  0  0  0  0  0  0
    1.0502    3.3078    3.4882 H   0  0  0  0  0  0  0  0  0  0  0  0
    0.2368    3.7959    1.9810 H   0  0  0  0  0  0  0  0  0  0  0  0
    0.6409    5.0150    3.1885 H   0  0  0  0  0  0  0  0  0  0  0  0
    2.3849   -4.2620    2.5170 H   0  0  0  0  0  0  0  0  0  0  0  0
    2.8901   -3.3138    3.9263 H   0  0  0  0  0  0  0  0  0  0  0  0
    1.3878   -4.2513    3.9851 H   0  0  0  0  0  0  0  0  0  0  0  0
    0.9174   -1.8266    3.6621 H   0  0  0  0  0  0  0  0  0  0  0  0
    1.9496   -1.8053    2.2305 H   0  0  0  0  0  0  0  0  0  0  0  0
    0.4230   -3.4390    1.0987 H   0  0  0  0  0  0  0  0  0  0  0  0
   -0.5848   -3.5035    2.5461 H   0  0  0  0  0  0  0  0  0  0  0  0
   -1.1476   -1.0808    2.2998 H   0  0  0  0  0  0  0  0  0  0  0  0
   -1.5898   -2.0116    0.8576 H   0  0  0  0  0  0  0  0  0  0  0  0
   -2.2528    2.1951    1.2842 H   0  0  0  0  0  0  0  0  0  0  0  0
  1  2  1  0  0  0  0
  1  3  2  0  0  0  0
  2  4  2  0  0  0  0
  3  5  1  0  0  0  0
  4  6  1  0  0  0  0
  4 13  1  0  0  0  0
  5  6  2  0  0  0  0
  5 14  1  0  0  0  0
  6 20  1  0  0  0  0
  7 12  1  0  0  0  0
  7 20  1  0  0  0  0
  7 21  2  0  0  0  0
  8  9  1  0  0  0  0
  8 10  1  0  0  0  0
  9 11  1  0  0  0  0
 10 12  1  0  0  0  0
 11 19  1  0  0  0  0
 12 19  1  0  0  0  0
 15 16  1  0  0  0  0
 16 17  1  0  0  0  0
 17 18  1  0  0  0  0
 18 19  1  0  0  0  0
  1 22  1  0  0  0  0
  2 23  1  0  0  0  0
  3 24  1  0  0  0  0
  8 25  1  0  0  0  0
  8 26  1  0  0  0  0
  9 27  1  0  0  0  0
  9 28  1  0  0  0  0
 10 29  1  0  0  0  0
 10 30  1  0  0  0  0
 11 31  1  0  0  0  0
 11 32  1  0  0  0  0
 12 33  1  0  0  0  0
 13 34  1  0  0  0  0
 13 35  1  0  0  0  0
 13 36  1  0  0  0  0
 14 37  1  0  0  0  0
 14 38  1  0  0  0  0
 14 39  1  0  0  0  0
 15 40  1  0  0  0  0
 15 41  1  0  0  0  0
 15 42  1  0  0  0  0
 16 43  1  0  0  0  0
 16 44  1  0  0  0  0
 17 45  1  0  0  0  0
 17 46  1  0  0  0  0
 18 47  1  0  0  0  0
 18 48  1  0  0  0  0
 20 49  1  0  0  0  0
M  END
$$$$
