1-(9~{H}-carbazol-4-yloxy)-3-[2-(2-methoxyphenoxy)ethylamino]propan-2-ol
  -OEChem-02121815203D

 56 59  0     1  0  0  0  0  0999 V2000
   -1.1856   -5.2902   -2.4528 C   0  0  0  0  0  0  0  0  0  0  0  0
   -0.5814   -6.2689   -1.6674 C   0  0  0  0  0  0  0  0  0  0  0  0
   -4.9550   -6.1717   -0.2210 C   0  0  0  0  0  0  0  0  0  0  0  0
   -5.8393   -5.8574   -1.2528 C   0  0  0  0  0  0  0  0  0  0  0  0
    0.6683   -0.2856    1.4671 C   0  0  0  0  0  0  0  0  0  0  0  0
   -1.1180   -3.9401   -2.0906 C   0  0  0  0  0  0  0  0  0  0  0  0
    0.1071   -5.9302   -0.4994 C   0  0  0  0  0  0  0  0  0  0  0  0
    1.0099   -1.6073    1.7652 C   0  0  0  0  0  0  0  0  0  0  0  0
   -4.1120   -5.1892    0.2986 C   0  0  0  0  0  0  0  0  0  0  0  0
   -5.8807   -4.5608   -1.7652 C   0  0  0  0  0  0  0  0  0  0  0  0
   -0.0758    0.0239    0.3311 C   0  0  0  0  0  0  0  0  0  0  0  0
   -0.4289   -3.5729   -0.9156 C   0  0  0  0  0  0  0  0  0  0  0  0
   -0.1685   -2.3263   -0.2625 C   0  0  0  0  0  0  0  0  0  0  0  0
    0.1659   -4.5761   -0.1501 C   0  0  0  0  0  0  0  0  0  0  0  0
    0.5778   -2.6042    0.8829 C   0  0  0  0  0  0  0  0  0  0  0  0
   -0.5006   -0.9840   -0.5419 C   0  0  0  0  0  0  0  0  0  0  0  0
   -4.1534   -3.8925   -0.2138 C   0  0  0  0  0  0  0  0  0  0  0  0
   -5.0377   -3.5783   -1.2457 C   0  0  0  0  0  0  0  0  0  0  0  0
   -3.8168   -2.1796    1.4012 C   0  0  0  0  0  0  0  0  0  0  0  0
   -4.7760   -0.9603   -3.7192 C   0  0  0  0  0  0  0  0  0  0  0  0
   -2.6460    0.0778   -4.1012 C   0  0  0  0  0  0  0  0  0  0  0  0
   -5.4516   -2.1837   -3.1271 C   0  0  0  0  0  0  0  0  0  0  0  0
   -0.6086    0.2445   -2.5753 C   0  0  0  0  0  0  0  0  0  0  0  0
   -1.1291   -0.0647   -3.9757 C   0  0  2  0  0  0  0  0  0  0  0  0
    0.7649   -3.9657    0.9264 N   0  0  0  0  0  0  0  0  0  0  0  0
   -3.3272   -1.0853   -3.5803 N   0  0  0  0  0  0  0  0  0  0  0  0
   -0.4862    0.8108   -4.9027 O   0  0  0  0  0  0  0  0  0  0  0  0
   -3.3242   -2.9423    0.3013 O   0  0  0  0  0  0  0  0  0  0  0  0
   -1.2304   -0.6380   -1.6487 O   0  0  0  0  0  0  0  0  0  0  0  0
   -5.0870   -2.3085   -1.7584 O   0  0  0  0  0  0  0  0  0  0  0  0
   -1.7163   -5.5764   -3.3568 H   0  0  0  0  0  0  0  0  0  0  0  0
   -0.6459   -7.3120   -1.9658 H   0  0  0  0  0  0  0  0  0  0  0  0
   -4.9229   -7.1815    0.1782 H   0  0  0  0  0  0  0  0  0  0  0  0
   -6.4954   -6.6222   -1.6573 H   0  0  0  0  0  0  0  0  0  0  0  0
    0.9894    0.5120    2.1323 H   0  0  0  0  0  0  0  0  0  0  0  0
   -1.5956   -3.1914   -2.7162 H   0  0  0  0  0  0  0  0  0  0  0  0
    0.5778   -6.6931    0.1116 H   0  0  0  0  0  0  0  0  0  0  0  0
    1.5898   -1.8477    2.6500 H   0  0  0  0  0  0  0  0  0  0  0  0
   -3.4255   -5.4405    1.1026 H   0  0  0  0  0  0  0  0  0  0  0  0
   -6.5707   -4.3231   -2.5702 H   0  0  0  0  0  0  0  0  0  0  0  0
   -0.3262    1.0612    0.1236 H   0  0  0  0  0  0  0  0  0  0  0  0
   -3.0577   -1.4588    1.7148 H   0  0  0  0  0  0  0  0  0  0  0  0
   -4.0628   -2.8493    2.2292 H   0  0  0  0  0  0  0  0  0  0  0  0
   -4.7166   -1.6447    1.0883 H   0  0  0  0  0  0  0  0  0  0  0  0
   -5.0105   -0.8534   -4.7831 H   0  0  0  0  0  0  0  0  0  0  0  0
   -5.0928   -0.0567   -3.1899 H   0  0  0  0  0  0  0  0  0  0  0  0
   -2.9871    0.9540   -3.5397 H   0  0  0  0  0  0  0  0  0  0  0  0
   -2.9281    0.2202   -5.1496 H   0  0  0  0  0  0  0  0  0  0  0  0
   -5.1176   -3.0857   -3.6492 H   0  0  0  0  0  0  0  0  0  0  0  0
   -6.5420   -2.1143   -3.1961 H   0  0  0  0  0  0  0  0  0  0  0  0
   -0.8526    1.2703   -2.2826 H   0  0  0  0  0  0  0  0  0  0  0  0
    0.4727    0.0887   -2.5051 H   0  0  0  0  0  0  0  0  0  0  0  0
   -0.8369   -1.0842   -4.2540 H   0  0  0  0  0  0  0  0  0  0  0  0
    1.2736   -4.4519    1.6517 H   0  0  0  0  0  0  0  0  0  0  0  0
   -3.1021   -1.2043   -2.5889 H   0  0  0  0  0  0  0  0  0  0  0  0
   -0.7868    0.5440   -5.7843 H   0  0  0  0  0  0  0  0  0  0  0  0
  1  2  1  0  0  0  0
  1  6  2  0  0  0  0
  2  7  2  0  0  0  0
  3  4  1  0  0  0  0
  3  9  2  0  0  0  0
  4 10  2  0  0  0  0
  5  8  1  0  0  0  0
  5 11  2  0  0  0  0
  6 12  1  0  0  0  0
  7 14  1  0  0  0  0
  8 15  2  0  0  0  0
  9 17  1  0  0  0  0
 10 18  1  0  0  0  0
 11 16  1  0  0  0  0
 12 13  1  0  0  0  0
 12 14  2  0  0  0  0
 13 15  1  0  0  0  0
 13 16  2  0  0  0  0
 14 25  1  0  0  0  0
 15 25  1  0  0  0  0
 16 29  1  0  0  0  0
 17 18  2  0  0  0  0
 17 28  1  0  0  0  0
 18 30  1  0  0  0  0
 19 28  1  0  0  0  0
 20 22  1  0  0  0  0
 20 26  1  0  0  0  0
 21 24  1  0  0  0  0
 21 26  1  0  0  0  0
 22 30  1  0  0  0  0
 23 24  1  0  0  0  0
 23 29  1  0  0  0  0
 24 27  1  0  0  0  0
  1 31  1  0  0  0  0
  2 32  1  0  0  0  0
  3 33  1  0  0  0  0
  4 34  1  0  0  0  0
  5 35  1  0  0  0  0
  6 36  1  0  0  0  0
  7 37  1  0  0  0  0
  8 38  1  0  0  0  0
  9 39  1  0  0  0  0
 10 40  1  0  0  0  0
 11 41  1  0  0  0  0
 19 42  1  0  0  0  0
 19 43  1  0  0  0  0
 19 44  1  0  0  0  0
 20 45  1  0  0  0  0
 20 46  1  0  0  0  0
 21 47  1  0  0  0  0
 21 48  1  0  0  0  0
 22 49  1  0  0  0  0
 22 50  1  0  0  0  0
 23 51  1  0  0  0  0
 23 52  1  0  0  0  0
 24 53  1  0  0  0  0
 25 54  1  0  0  0  0
 26 55  1  0  0  0  0
 27 56  1  0  0  0  0
M  END
$$$$
