~{N}-[2-[4-(cyclohexylcarbamoylsulfamoyl)phenyl]ethyl]-5-methyl-pyrazine-2-carbo
  -OEChem-02121815203D

 58 60  0     0  0  0  0  0  0999 V2000
    7.4508   -1.0033    0.7345 C   0  0  0  0  0  0  0  0  0  0  0  0
    5.6670   -2.1928    1.8480 C   0  0  0  0  0  0  0  0  0  0  0  0
    7.1687    0.1316    1.4947 C   0  0  0  0  0  0  0  0  0  0  0  0
    5.3848   -1.0579    2.6083 C   0  0  0  0  0  0  0  0  0  0  0  0
    5.1287    0.5915   -3.9120 C   0  0  0  0  0  0  0  0  0  0  0  0
    7.7157    0.6307   -4.5700 C   0  0  0  0  0  0  0  0  0  0  0  0
    6.7000   -2.1655    0.9111 C   0  0  0  0  0  0  0  0  0  0  0  0
    6.1357    0.1043    2.4317 C   0  0  0  0  0  0  0  0  0  0  0  0
    6.0012   -0.3550   -3.4218 C   0  0  0  0  0  0  0  0  0  0  0  0
    6.8432    1.5769   -5.0608 C   0  0  0  0  0  0  0  0  0  0  0  0
    5.5410   -1.4351   -2.5115 C   0  0  0  0  0  0  0  0  0  0  0  0
    4.9454    3.1751    1.2898 C   0  0  0  0  0  0  0  0  0  0  0  0
    1.3584    4.1441   -1.9654 C   0  0  0  0  0  0  0  0  0  0  0  0
    2.5017    3.1338   -2.0129 C   0  0  0  0  0  0  0  0  0  0  0  0
    1.3553    4.9400   -0.6630 C   0  0  0  0  0  0  0  0  0  0  0  0
    3.8530    3.8004   -1.7518 C   0  0  0  0  0  0  0  0  0  0  0  0
    2.7093    5.6027   -0.4053 C   0  0  0  0  0  0  0  0  0  0  0  0
    3.8767    4.6075   -0.4469 C   0  0  0  0  0  0  0  0  0  0  0  0
    7.3259    2.6475   -5.9760 C   0  0  0  0  0  0  0  0  0  0  0  0
    7.0009   -3.3789    0.0979 C   0  0  0  0  0  0  0  0  0  0  0  0
    6.2203   -3.4423   -1.2208 C   0  0  0  0  0  0  0  0  0  0  0  0
    7.3104   -0.3523   -3.7417 N   0  0  0  0  0  0  0  0  0  0  0  0
    5.5339    1.5743   -4.7405 N   0  0  0  0  0  0  0  0  0  0  0  0
    6.5143   -2.3299   -2.0840 N   0  0  0  0  0  0  0  0  0  0  0  0
    3.8170    3.7076    0.7069 N   0  0  0  0  0  0  0  0  0  0  0  0
    4.6345    2.3287    2.4008 N   0  0  0  0  0  0  0  0  0  0  0  0
    4.3531   -1.4964   -2.2055 O   0  0  0  0  0  0  0  0  0  0  0  0
    6.0952    3.3897    0.9174 O   0  0  0  0  0  0  0  0  0  0  0  0
    5.1361    1.1131    4.6236 O   0  0  0  0  0  0  0  0  0  0  0  0
    6.9960    2.3298    3.4414 O   0  0  0  0  0  0  0  0  0  0  0  0
    5.7795    1.5416    3.3967 S   0  0  0  0  0  0  0  0  0  0  0  0
    8.2573   -0.9726    0.0067 H   0  0  0  0  0  0  0  0  0  0  0  0
    5.0764   -3.0937    1.9922 H   0  0  0  0  0  0  0  0  0  0  0  0
    7.7595    1.0321    1.3488 H   0  0  0  0  0  0  0  0  0  0  0  0
    4.5775   -1.0900    3.3352 H   0  0  0  0  0  0  0  0  0  0  0  0
    4.0747    0.5966   -3.6592 H   0  0  0  0  0  0  0  0  0  0  0  0
    8.7694    0.6265   -4.8230 H   0  0  0  0  0  0  0  0  0  0  0  0
    1.4380    4.8309   -2.8169 H   0  0  0  0  0  0  0  0  0  0  0  0
    0.4015    3.6162   -2.0717 H   0  0  0  0  0  0  0  0  0  0  0  0
    2.3301    2.3474   -1.2699 H   0  0  0  0  0  0  0  0  0  0  0  0
    2.5196    2.6481   -2.9959 H   0  0  0  0  0  0  0  0  0  0  0  0
    0.5758    5.7099   -0.7067 H   0  0  0  0  0  0  0  0  0  0  0  0
    1.1051    4.2779    0.1731 H   0  0  0  0  0  0  0  0  0  0  0  0
    4.6417    3.0282   -1.7271 H   0  0  0  0  0  0  0  0  0  0  0  0
    4.1063    4.4554   -2.6025 H   0  0  0  0  0  0  0  0  0  0  0  0
    2.8712    6.4014   -1.1486 H   0  0  0  0  0  0  0  0  0  0  0  0
    2.6864    6.1099    0.5750 H   0  0  0  0  0  0  0  0  0  0  0  0
    4.8191    5.1428   -0.3628 H   0  0  0  0  0  0  0  0  0  0  0  0
    7.2524    2.3213   -7.0216 H   0  0  0  0  0  0  0  0  0  0  0  0
    6.7397    3.5693   -5.8592 H   0  0  0  0  0  0  0  0  0  0  0  0
    8.3723    2.9106   -5.7684 H   0  0  0  0  0  0  0  0  0  0  0  0
    6.7663   -4.2814    0.6871 H   0  0  0  0  0  0  0  0  0  0  0  0
    8.0818   -3.4461   -0.1147 H   0  0  0  0  0  0  0  0  0  0  0  0
    6.4782   -4.3496   -1.7762 H   0  0  0  0  0  0  0  0  0  0  0  0
    5.1398   -3.4462   -1.0434 H   0  0  0  0  0  0  0  0  0  0  0  0
    7.4667   -2.2473   -2.4337 H   0  0  0  0  0  0  0  0  0  0  0  0
    2.9126    3.4679    1.0903 H   0  0  0  0  0  0  0  0  0  0  0  0
    3.6436    2.2060    2.6447 H   0  0  0  0  0  0  0  0  0  0  0  0
  1  3  2  0  0  0  0
  1  7  1  0  0  0  0
  2  4  1  0  0  0  0
  2  7  2  0  0  0  0
  3  8  1  0  0  0  0
  4  8  2  0  0  0  0
  5  9  2  0  0  0  0
  5 23  1  0  0  0  0
  6 10  1  0  0  0  0
  6 22  2  0  0  0  0
  7 20  1  0  0  0  0
  8 31  1  0  0  0  0
  9 11  1  0  0  0  0
  9 22  1  0  0  0  0
 10 19  1  0  0  0  0
 10 23  2  0  0  0  0
 11 24  1  0  0  0  0
 11 27  2  0  0  0  0
 12 25  1  0  0  0  0
 12 26  1  0  0  0  0
 12 28  2  0  0  0  0
 13 14  1  0  0  0  0
 13 15  1  0  0  0  0
 14 16  1  0  0  0  0
 15 17  1  0  0  0  0
 16 18  1  0  0  0  0
 17 18  1  0  0  0  0
 18 25  1  0  0  0  0
 20 21  1  0  0  0  0
 21 24  1  0  0  0  0
 26 31  1  0  0  0  0
 29 31  2  0  0  0  0
 30 31  2  0  0  0  0
  1 32  1  0  0  0  0
  2 33  1  0  0  0  0
  3 34  1  0  0  0  0
  4 35  1  0  0  0  0
  5 36  1  0  0  0  0
  6 37  1  0  0  0  0
 13 38  1  0  0  0  0
 13 39  1  0  0  0  0
 14 40  1  0  0  0  0
 14 41  1  0  0  0  0
 15 42  1  0  0  0  0
 15 43  1  0  0  0  0
 16 44  1  0  0  0  0
 16 45  1  0  0  0  0
 17 46  1  0  0  0  0
 17 47  1  0  0  0  0
 18 48  1  0  0  0  0
 19 49  1  0  0  0  0
 19 50  1  0  0  0  0
 19 51  1  0  0  0  0
 20 52  1  0  0  0  0
 20 53  1  0  0  0  0
 21 54  1  0  0  0  0
 21 55  1  0  0  0  0
 24 56  1  0  0  0  0
 25 57  1  0  0  0  0
 26 58  1  0  0  0  0
M  END
$$$$
