1,1-dioxo-6-(trifluoromethyl)-3,4-dihydro-2~{H}-1$l^{6},2,4-benzothiadiazine-7-s
  -OEChem-02121815203D

 28 29  0     0  0  0  0  0  0999 V2000
   -2.1146   -0.8073    2.5409 C   0  0  0  0  0  0  0  0  0  0  0  0
   -0.8194   -1.9570    0.3585 C   0  0  0  0  0  0  0  0  0  0  0  0
   -1.2881   -0.0296    1.7239 C   0  0  0  0  0  0  0  0  0  0  0  0
   -2.3228   -2.1724    2.2850 C   0  0  0  0  0  0  0  0  0  0  0  0
   -1.6520   -2.7216    1.1811 C   0  0  0  0  0  0  0  0  0  0  0  0
   -0.6425   -0.6048    0.6330 C   0  0  0  0  0  0  0  0  0  0  0  0
   -3.4942   -4.2764    2.8883 C   0  0  0  0  0  0  0  0  0  0  0  0
   -1.1172    1.4179    2.0524 C   0  0  0  0  0  0  0  0  0  0  0  0
   -3.1337   -2.8993    3.1431 N   0  0  0  0  0  0  0  0  0  0  0  0
   -2.3889   -5.0456    2.2889 N   0  0  0  0  0  0  0  0  0  0  0  0
    0.8991   -0.8493   -1.5277 N   0  0  0  0  0  0  0  0  0  0  0  0
   -0.4855   -4.9708    0.5699 O   0  0  0  0  0  0  0  0  0  0  0  0
   -2.8575   -4.5349   -0.2016 O   0  0  0  0  0  0  0  0  0  0  0  0
   -0.4180    1.3248   -1.0990 O   0  0  0  0  0  0  0  0  0  0  0  0
    1.5545    0.7689    0.3667 O   0  0  0  0  0  0  0  0  0  0  0  0
   -1.8190    1.8131    3.1543 F   0  0  0  0  0  0  0  0  0  0  0  0
    0.1770    1.7688    2.3068 F   0  0  0  0  0  0  0  0  0  0  0  0
   -1.5285    2.2352    1.0410 F   0  0  0  0  0  0  0  0  0  0  0  0
   -1.8137   -4.4381    0.7993 S   0  0  0  0  0  0  0  0  0  0  0  0
    0.3998    0.3396   -0.4078 S   0  0  0  0  0  0  0  0  0  0  0  0
   -2.6069   -0.3407    3.3933 H   0  0  0  0  0  0  0  0  0  0  0  0
   -0.3151   -2.4102   -0.4910 H   0  0  0  0  0  0  0  0  0  0  0  0
   -3.7774   -4.7552    3.8312 H   0  0  0  0  0  0  0  0  0  0  0  0
   -4.3673   -4.3201    2.2278 H   0  0  0  0  0  0  0  0  0  0  0  0
   -3.6186   -2.4055    3.8837 H   0  0  0  0  0  0  0  0  0  0  0  0
   -1.6890   -5.3913    2.9575 H   0  0  0  0  0  0  0  0  0  0  0  0
    0.5250   -0.7979   -2.4831 H   0  0  0  0  0  0  0  0  0  0  0  0
    1.8713   -1.1778   -1.4797 H   0  0  0  0  0  0  0  0  0  0  0  0
  1  3  1  0  0  0  0
  1  4  2  0  0  0  0
  2  5  2  0  0  0  0
  2  6  1  0  0  0  0
  3  6  2  0  0  0  0
  3  8  1  0  0  0  0
  4  5  1  0  0  0  0
  4  9  1  0  0  0  0
  5 19  1  0  0  0  0
  6 20  1  0  0  0  0
  7  9  1  0  0  0  0
  7 10  1  0  0  0  0
  8 16  1  0  0  0  0
  8 17  1  0  0  0  0
  8 18  1  0  0  0  0
 10 19  1  0  0  0  0
 11 20  1  0  0  0  0
 12 19  2  0  0  0  0
 13 19  2  0  0  0  0
 14 20  2  0  0  0  0
 15 20  2  0  0  0  0
  1 21  1  0  0  0  0
  2 22  1  0  0  0  0
  7 23  1  0  0  0  0
  7 24  1  0  0  0  0
  9 25  1  0  0  0  0
 10 26  1  0  0  0  0
 11 27  1  0  0  0  0
 11 28  1  0  0  0  0
M  END
$$$$
