(2~{S})-pyrrolidine-2-carboxylic acid
  -OEChem-02121815203D

 17 17  0     1  0  0  0  0  0999 V2000
    0.4995   -0.7488   -0.6322 C   0  0  0  0  0  0  0  0  0  0  0  0
    3.3916   -2.6152   -0.0599 C   0  0  0  0  0  0  0  0  0  0  0  0
    2.5262   -2.1217   -1.2099 C   0  0  0  0  0  0  0  0  0  0  0  0
    3.7605   -1.3436    0.6746 C   0  0  0  0  0  0  0  0  0  0  0  0
    1.9890   -0.7723   -0.7414 C   0  0  2  0  0  0  0  0  0  0  0  0
    2.5260   -0.5681    0.6040 N   0  0  0  0  0  0  0  0  0  0  0  0
   -0.1257   -0.5936    0.4063 O   0  0  0  0  0  0  0  0  0  0  0  0
   -0.0725   -0.9265   -1.8481 O   0  0  0  0  0  0  0  0  0  0  0  0
    2.8063   -3.2774    0.5901 H   0  0  0  0  0  0  0  0  0  0  0  0
    4.2679   -3.1687   -0.4097 H   0  0  0  0  0  0  0  0  0  0  0  0
    3.1514   -1.9783   -2.0995 H   0  0  0  0  0  0  0  0  0  0  0  0
    1.7482   -2.8500   -1.4605 H   0  0  0  0  0  0  0  0  0  0  0  0
    4.0654   -1.5337    1.7077 H   0  0  0  0  0  0  0  0  0  0  0  0
    4.5725   -0.8115    0.1661 H   0  0  0  0  0  0  0  0  0  0  0  0
    2.3018    0.0339   -1.4068 H   0  0  0  0  0  0  0  0  0  0  0  0
    1.8768   -0.9526    1.2923 H   0  0  0  0  0  0  0  0  0  0  0  0
   -1.0521   -0.9160   -1.7972 H   0  0  0  0  0  0  0  0  0  0  0  0
  1  5  1  0  0  0  0
  1  7  2  0  0  0  0
  1  8  1  0  0  0  0
  2  3  1  0  0  0  0
  2  4  1  0  0  0  0
  3  5  1  0  0  0  0
  4  6  1  0  0  0  0
  5  6  1  0  0  0  0
  2  9  1  0  0  0  0
  2 10  1  0  0  0  0
  3 11  1  0  0  0  0
  3 12  1  0  0  0  0
  4 13  1  0  0  0  0
  4 14  1  0  0  0  0
  5 15  1  0  0  0  0
  6 16  1  0  0  0  0
  8 17  1  0  0  0  0
M  END
$$$$
