4-amino-5-chloro-~{N}-[2-(diethylamino)ethyl]-2-(hydroxymethyl)benzamide
  -OEChem-02121815203D

 42 42  0     0  0  0  0  0  0999 V2000
    5.8764   -0.3403    4.5170 C   0  0  0  0  0  0  0  0  0  0  0  0
    4.5616    0.4760    6.8381 C   0  0  0  0  0  0  0  0  0  0  0  0
    4.5433    0.0656    4.4572 C   0  0  0  0  0  0  0  0  0  0  0  0
    3.8859    0.4738    5.6178 C   0  0  0  0  0  0  0  0  0  0  0  0
    5.8947    0.0701    6.8978 C   0  0  0  0  0  0  0  0  0  0  0  0
    6.5521   -0.3381    5.7373 C   0  0  0  0  0  0  0  0  0  0  0  0
    3.8468    0.0540    3.1451 C   0  0  0  0  0  0  0  0  0  0  0  0
    0.1851   -0.7319   -1.9630 C   0  0  0  0  0  0  0  0  0  0  0  0
   -1.2045   -1.8866    0.9955 C   0  0  0  0  0  0  0  0  0  0  0  0
    2.4584    0.9135    5.5825 C   0  0  0  0  0  0  0  0  0  0  0  0
    0.7669   -0.5542   -0.6019 C   0  0  0  0  0  0  0  0  0  0  0  0
   -0.2048   -2.6143    0.1625 C   0  0  0  0  0  0  0  0  0  0  0  0
    3.1402   -1.3472    1.2232 C   0  0  0  0  0  0  0  0  0  0  0  0
    1.6567   -1.6543    1.3398 C   0  0  0  0  0  0  0  0  0  0  0  0
    6.5523    0.0831    8.1485 N   0  0  0  0  0  0  0  0  0  0  0  0
    3.7622   -1.1786    2.5091 N   0  0  0  0  0  0  0  0  0  0  0  0
    1.0323   -1.8455    0.0312 N   0  0  0  0  0  0  0  0  0  0  0  0
    3.4098    1.1071    2.6884 O   0  0  0  0  0  0  0  0  0  0  0  0
    1.6507   -0.1514    5.0987 O   0  0  0  0  0  0  0  0  0  0  0  0
    8.2014   -0.8513    5.7675 Cl  0  0  0  0  0  0  0  0  0  0  0  0
    6.3849   -0.6594    3.6095 H   0  0  0  0  0  0  0  0  0  0  0  0
    4.0468    0.7948    7.7419 H   0  0  0  0  0  0  0  0  0  0  0  0
    0.8729   -1.2835   -2.6130 H   0  0  0  0  0  0  0  0  0  0  0  0
   -0.7702   -1.2656   -1.9124 H   0  0  0  0  0  0  0  0  0  0  0  0
    0.0017    0.2482   -2.4193 H   0  0  0  0  0  0  0  0  0  0  0  0
   -0.8171   -1.7089    2.0046 H   0  0  0  0  0  0  0  0  0  0  0  0
   -1.4708   -0.9281    0.5370 H   0  0  0  0  0  0  0  0  0  0  0  0
   -2.1191   -2.4849    1.0852 H   0  0  0  0  0  0  0  0  0  0  0  0
    2.1048    1.1986    6.5818 H   0  0  0  0  0  0  0  0  0  0  0  0
    2.3299    1.7831    4.9252 H   0  0  0  0  0  0  0  0  0  0  0  0
    0.0750   -0.0027    0.0418 H   0  0  0  0  0  0  0  0  0  0  0  0
    1.7129   -0.0072   -0.6527 H   0  0  0  0  0  0  0  0  0  0  0  0
   -0.5980   -2.7884   -0.8436 H   0  0  0  0  0  0  0  0  0  0  0  0
    0.0482   -3.5782    0.6138 H   0  0  0  0  0  0  0  0  0  0  0  0
    3.3144   -0.4294    0.6528 H   0  0  0  0  0  0  0  0  0  0  0  0
    3.6566   -2.1720    0.7224 H   0  0  0  0  0  0  0  0  0  0  0  0
    1.5044   -2.5780    1.9065 H   0  0  0  0  0  0  0  0  0  0  0  0
    1.1204   -0.8447    1.8452 H   0  0  0  0  0  0  0  0  0  0  0  0
    6.0646    0.4260    8.9496 H   0  0  0  0  0  0  0  0  0  0  0  0
    7.5198   -0.1612    8.1902 H   0  0  0  0  0  0  0  0  0  0  0  0
    4.2058   -1.9947    2.9256 H   0  0  0  0  0  0  0  0  0  0  0  0
    0.7355    0.1726    5.0910 H   0  0  0  0  0  0  0  0  0  0  0  0
  1  3  1  0  0  0  0
  1  6  2  0  0  0  0
  2  4  1  0  0  0  0
  2  5  2  0  0  0  0
  3  4  2  0  0  0  0
  3  7  1  0  0  0  0
  4 10  1  0  0  0  0
  5  6  1  0  0  0  0
  5 15  1  0  0  0  0
  6 20  1  0  0  0  0
  7 16  1  0  0  0  0
  7 18  2  0  0  0  0
  8 11  1  0  0  0  0
  9 12  1  0  0  0  0
 10 19  1  0  0  0  0
 11 17  1  0  0  0  0
 12 17  1  0  0  0  0
 13 14  1  0  0  0  0
 13 16  1  0  0  0  0
 14 17  1  0  0  0  0
  1 21  1  0  0  0  0
  2 22  1  0  0  0  0
  8 23  1  0  0  0  0
  8 24  1  0  0  0  0
  8 25  1  0  0  0  0
  9 26  1  0  0  0  0
  9 27  1  0  0  0  0
  9 28  1  0  0  0  0
 10 29  1  0  0  0  0
 10 30  1  0  0  0  0
 11 31  1  0  0  0  0
 11 32  1  0  0  0  0
 12 33  1  0  0  0  0
 12 34  1  0  0  0  0
 13 35  1  0  0  0  0
 13 36  1  0  0  0  0
 14 37  1  0  0  0  0
 14 38  1  0  0  0  0
 15 39  1  0  0  0  0
 15 40  1  0  0  0  0
 16 41  1  0  0  0  0
 19 42  1  0  0  0  0
M  END
$$$$
