2-(2-methyl-5-nitro-imidazol-1-yl)ethanol
  -OEChem-02121815203D

 21 21  0     0  0  0  0  0  0999 V2000
    1.9499   -0.7740   -0.8259 C   0  0  0  0  0  0  0  0  0  0  0  0
    0.6549   -0.7784   -0.3640 C   0  0  0  0  0  0  0  0  0  0  0  0
    1.3133   -2.8020   -0.9371 C   0  0  0  0  0  0  0  0  0  0  0  0
    1.2398   -4.2613   -1.1548 C   0  0  0  0  0  0  0  0  0  0  0  0
   -1.0321   -2.6155   -0.0692 C   0  0  0  0  0  0  0  0  0  0  0  0
   -1.1873   -2.7695    1.4378 C   0  0  0  0  0  0  0  0  0  0  0  0
    2.3537   -2.0366   -1.1813 N   0  0  0  0  0  0  0  0  0  0  0  0
    0.2603   -2.0844   -0.4416 N   0  0  0  0  0  0  0  0  0  0  0  0
   -0.1650    0.2552    0.1016 N   0  3  0  0  0  0  0  0  0  0  0  0
    0.2775    1.4397    0.1413 O   0  5  0  0  0  0  0  0  0  0  0  0
   -1.3447   -0.0001    0.4808 O   0  0  0  0  0  0  0  0  0  0  0  0
   -0.1694   -3.6263    1.9390 O   0  0  0  0  0  0  0  0  0  0  0  0
    2.6157    0.0720   -0.9220 H   0  0  0  0  0  0  0  0  0  0  0  0
    1.5622   -4.8124   -0.2567 H   0  0  0  0  0  0  0  0  0  0  0  0
    0.2166   -4.5906   -1.4020 H   0  0  0  0  0  0  0  0  0  0  0  0
    1.8766   -4.5856   -1.9950 H   0  0  0  0  0  0  0  0  0  0  0  0
   -1.7958   -1.9440   -0.4788 H   0  0  0  0  0  0  0  0  0  0  0  0
   -1.1364   -3.5865   -0.5667 H   0  0  0  0  0  0  0  0  0  0  0  0
   -1.0743   -1.7951    1.9233 H   0  0  0  0  0  0  0  0  0  0  0  0
   -2.1628   -3.1876    1.7065 H   0  0  0  0  0  0  0  0  0  0  0  0
   -0.3079   -3.6943    2.8974 H   0  0  0  0  0  0  0  0  0  0  0  0
  1  2  2  0  0  0  0
  1  7  1  0  0  0  0
  2  8  1  0  0  0  0
  2  9  1  0  0  0  0
  3  4  1  0  0  0  0
  3  7  2  0  0  0  0
  3  8  1  0  0  0  0
  5  6  1  0  0  0  0
  5  8  1  0  0  0  0
  6 12  1  0  0  0  0
  9 10  1  0  0  0  0
  9 11  2  0  0  0  0
  1 13  1  0  0  0  0
  4 14  1  0  0  0  0
  4 15  1  0  0  0  0
  4 16  1  0  0  0  0
  5 17  1  0  0  0  0
  5 18  1  0  0  0  0
  6 19  1  0  0  0  0
  6 20  1  0  0  0  0
 12 21  1  0  0  0  0
M  CHG  2   9   1  10  -1
M  END
$$$$
