1-[2-(2,4-dichlorophenyl)-2-[(2,4-dichlorophenyl)methoxy]ethyl]imidazole
  -OEChem-02121815203D

 39 41  0     1  0  0  0  0  0999 V2000
    2.8541   -2.3465    2.6642 C   0  0  0  0  0  0  0  0  0  0  0  0
    4.6989   -4.1128   -0.9664 C   0  0  0  0  0  0  0  0  0  0  0  0
    1.7311   -1.7603    3.2480 C   0  0  0  0  0  0  0  0  0  0  0  0
    4.3107   -5.4010   -1.3345 C   0  0  0  0  0  0  0  0  0  0  0  0
    2.8991    0.3508    3.3748 C   0  0  0  0  0  0  0  0  0  0  0  0
    6.5569   -6.1935   -0.9299 C   0  0  0  0  0  0  0  0  0  0  0  0
    8.0946    1.6638   -0.5342 C   0  0  0  0  0  0  0  0  0  0  0  0
    7.0343    0.8793   -0.9224 C   0  0  0  0  0  0  0  0  0  0  0  0
    8.8712   -0.3129   -0.6754 C   0  0  0  0  0  0  0  0  0  0  0  0
    3.9997   -1.5841    2.4358 C   0  0  0  0  0  0  0  0  0  0  0  0
    6.0161   -3.8649   -0.5800 C   0  0  0  0  0  0  0  0  0  0  0  0
    1.7536   -0.4117    3.6033 C   0  0  0  0  0  0  0  0  0  0  0  0
    5.2397   -6.4413   -1.3163 C   0  0  0  0  0  0  0  0  0  0  0  0
    4.0221   -0.2354    2.7911 C   0  0  0  0  0  0  0  0  0  0  0  0
    6.9451   -4.9053   -0.5618 C   0  0  0  0  0  0  0  0  0  0  0  0
    5.1828   -2.2502    1.8107 C   0  0  0  0  0  0  0  0  0  0  0  0
    6.8172   -1.5883   -1.3871 C   0  0  0  0  0  0  0  0  0  0  0  0
    6.3970   -2.4544   -0.1910 C   0  0  1  0  0  0  0  0  0  0  0  0
    9.2352    0.9158   -0.3825 N   0  0  0  0  0  0  0  0  0  0  0  0
    7.5472   -0.3842   -1.0090 N   0  0  0  0  0  0  0  0  0  0  0  0
    5.2843   -1.8472    0.4516 O   0  0  0  0  0  0  0  0  0  0  0  0
    0.3672    0.3117    4.3219 Cl  0  0  0  0  0  0  0  0  0  0  0  0
    4.7600   -8.0309   -1.7689 Cl  0  0  0  0  0  0  0  0  0  0  0  0
    5.4219    0.7391    2.5252 Cl  0  0  0  0  0  0  0  0  0  0  0  0
    8.5839   -4.6363   -0.0909 Cl  0  0  0  0  0  0  0  0  0  0  0  0
    2.8269   -3.3987    2.3928 H   0  0  0  0  0  0  0  0  0  0  0  0
    3.9676   -3.3088   -0.9859 H   0  0  0  0  0  0  0  0  0  0  0  0
    0.8452   -2.3663    3.4194 H   0  0  0  0  0  0  0  0  0  0  0  0
    3.2809   -5.5797   -1.6327 H   0  0  0  0  0  0  0  0  0  0  0  0
    2.9152    1.4025    3.6533 H   0  0  0  0  0  0  0  0  0  0  0  0
    7.2805   -7.0059   -0.9170 H   0  0  0  0  0  0  0  0  0  0  0  0
    8.0948    2.7293   -0.3564 H   0  0  0  0  0  0  0  0  0  0  0  0
    5.9985    1.1030   -1.1363 H   0  0  0  0  0  0  0  0  0  0  0  0
    9.5148   -1.1820   -0.6639 H   0  0  0  0  0  0  0  0  0  0  0  0
    6.1113   -1.9799    2.3295 H   0  0  0  0  0  0  0  0  0  0  0  0
    5.0862   -3.3426    1.8511 H   0  0  0  0  0  0  0  0  0  0  0  0
    7.4277   -2.1555   -2.1009 H   0  0  0  0  0  0  0  0  0  0  0  0
    5.9331   -1.2642   -1.9515 H   0  0  0  0  0  0  0  0  0  0  0  0
    7.2034   -2.4855    0.5518 H   0  0  0  0  0  0  0  0  0  0  0  0
  1  3  2  0  0  0  0
  1 10  1  0  0  0  0
  2  4  2  0  0  0  0
  2 11  1  0  0  0  0
  3 12  1  0  0  0  0
  4 13  1  0  0  0  0
  5 12  2  0  0  0  0
  5 14  1  0  0  0  0
  6 13  2  0  0  0  0
  6 15  1  0  0  0  0
  7  8  2  0  0  0  0
  7 19  1  0  0  0  0
  8 20  1  0  0  0  0
  9 19  2  0  0  0  0
  9 20  1  0  0  0  0
 10 14  2  0  0  0  0
 10 16  1  0  0  0  0
 11 15  2  0  0  0  0
 11 18  1  0  0  0  0
 12 22  1  0  0  0  0
 13 23  1  0  0  0  0
 14 24  1  0  0  0  0
 15 25  1  0  0  0  0
 16 21  1  0  0  0  0
 17 18  1  0  0  0  0
 17 20  1  0  0  0  0
 18 21  1  0  0  0  0
  1 26  1  0  0  0  0
  2 27  1  0  0  0  0
  3 28  1  0  0  0  0
  4 29  1  0  0  0  0
  5 30  1  0  0  0  0
  6 31  1  0  0  0  0
  7 32  1  0  0  0  0
  8 33  1  0  0  0  0
  9 34  1  0  0  0  0
 16 35  1  0  0  0  0
 16 36  1  0  0  0  0
 17 37  1  0  0  0  0
 17 38  1  0  0  0  0
 18 39  1  0  0  0  0
M  END
$$$$
