1-ethyl-7-methyl-4-oxo-1,8-naphthyridine-3-carboxylic acid
  -OEChem-02121815203D

 29 30  0     0  0  0  0  0  0999 V2000
    0.6744    0.3868   -0.7585 C   0  0  0  0  0  0  0  0  0  0  0  0
    2.0367    0.1660   -0.6261 C   0  0  0  0  0  0  0  0  0  0  0  0
    0.1986    1.1001   -1.8612 C   0  0  0  0  0  0  0  0  0  0  0  0
    2.8679    0.6706   -1.6070 C   0  0  0  0  0  0  0  0  0  0  0  0
    1.1018    1.5860   -2.8229 C   0  0  0  0  0  0  0  0  0  0  0  0
   -0.7662    2.5224   -4.0564 C   0  0  0  0  0  0  0  0  0  0  0  0
   -1.2604    1.3388   -2.0065 C   0  0  0  0  0  0  0  0  0  0  0  0
   -1.7007    2.1026   -3.1990 C   0  0  0  0  0  0  0  0  0  0  0  0
   -3.1004    2.4196   -3.4845 C   0  0  0  0  0  0  0  0  0  0  0  0
    4.3406    0.4536   -1.5008 C   0  0  0  0  0  0  0  0  0  0  0  0
    2.2947    3.9845   -4.3811 C   0  0  0  0  0  0  0  0  0  0  0  0
    1.5708    2.7886   -4.8991 C   0  0  0  0  0  0  0  0  0  0  0  0
    2.4368    1.3649   -2.6853 N   0  0  0  0  0  0  0  0  0  0  0  0
    0.5908    2.3079   -3.9334 N   0  0  0  0  0  0  0  0  0  0  0  0
   -2.0617    0.9235   -1.1790 O   0  0  0  0  0  0  0  0  0  0  0  0
   -3.4762    3.4098   -4.0873 O   0  0  0  0  0  0  0  0  0  0  0  0
   -3.8971    1.4535   -2.9801 O   0  0  0  0  0  0  0  0  0  0  0  0
   -0.0002   -0.0000    0.0001 H   0  0  0  0  0  0  0  0  0  0  0  0
    2.4258   -0.3858    0.2227 H   0  0  0  0  0  0  0  0  0  0  0  0
   -1.0273    3.0859   -4.9469 H   0  0  0  0  0  0  0  0  0  0  0  0
    4.6254   -0.4791   -2.0022 H   0  0  0  0  0  0  0  0  0  0  0  0
    4.8983    1.2802   -1.9590 H   0  0  0  0  0  0  0  0  0  0  0  0
    4.6594    0.3972   -0.4521 H   0  0  0  0  0  0  0  0  0  0  0  0
    1.5985    4.8059   -4.1799 H   0  0  0  0  0  0  0  0  0  0  0  0
    2.8421    3.7422   -3.4637 H   0  0  0  0  0  0  0  0  0  0  0  0
    3.0201    4.3313   -5.1268 H   0  0  0  0  0  0  0  0  0  0  0  0
    2.2718    1.9723   -5.0979 H   0  0  0  0  0  0  0  0  0  0  0  0
    1.0375    3.0282   -5.8238 H   0  0  0  0  0  0  0  0  0  0  0  0
   -3.3823    0.7483   -2.5330 H   0  0  0  0  0  0  0  0  0  0  0  0
  1  2  2  0  0  0  0
  1  3  1  0  0  0  0
  2  4  1  0  0  0  0
  3  5  2  0  0  0  0
  3  7  1  0  0  0  0
  4 10  1  0  0  0  0
  4 13  2  0  0  0  0
  5 13  1  0  0  0  0
  5 14  1  0  0  0  0
  6  8  2  0  0  0  0
  6 14  1  0  0  0  0
  7  8  1  0  0  0  0
  7 15  2  0  0  0  0
  8  9  1  0  0  0  0
  9 16  2  0  0  0  0
  9 17  1  0  0  0  0
 11 12  1  0  0  0  0
 12 14  1  0  0  0  0
  1 18  1  0  0  0  0
  2 19  1  0  0  0  0
  6 20  1  0  0  0  0
 10 21  1  0  0  0  0
 10 22  1  0  0  0  0
 10 23  1  0  0  0  0
 11 24  1  0  0  0  0
 11 25  1  0  0  0  0
 11 26  1  0  0  0  0
 12 27  1  0  0  0  0
 12 28  1  0  0  0  0
 17 29  1  0  0  0  0
M  END
$$$$
