(2~{S})-2-(6-methoxy-2-naphthyl)propanoic acid
  -OEChem-02121815203D

 31 32  0     1  0  0  0  0  0999 V2000
   -0.0479   -3.3542    0.5448 C   0  0  0  0  0  0  0  0  0  0  0  0
    3.4207   -2.9899   -0.7267 C   0  0  0  0  0  0  0  0  0  0  0  0
   -0.4966   -2.0341    0.4940 C   0  0  0  0  0  0  0  0  0  0  0  0
    3.8693   -4.3100   -0.6758 C   0  0  0  0  0  0  0  0  0  0  0  0
    1.6484   -1.3369   -0.3665 C   0  0  0  0  0  0  0  0  0  0  0  0
    1.7243   -5.0072    0.1848 C   0  0  0  0  0  0  0  0  0  0  0  0
    2.1168   -2.6602   -0.3222 C   0  0  0  0  0  0  0  0  0  0  0  0
    1.2560   -3.6839    0.1403 C   0  0  0  0  0  0  0  0  0  0  0  0
    0.3500   -1.0275    0.0392 C   0  0  0  0  0  0  0  0  0  0  0  0
    3.0228   -5.3167   -0.2210 C   0  0  0  0  0  0  0  0  0  0  0  0
    0.6611    1.3117    0.9118 C   0  0  0  0  0  0  0  0  0  0  0  0
   -0.1414    0.9811   -1.4362 C   0  0  0  0  0  0  0  0  0  0  0  0
    4.7996   -6.8512   -0.6003 C   0  0  0  0  0  0  0  0  0  0  0  0
   -0.1316    0.3829   -0.0147 C   0  0  1  0  0  0  0  0  0  0  0  0
    1.6037    0.9545    1.6065 O   0  0  0  0  0  0  0  0  0  0  0  0
    0.2069    2.5928    0.8990 O   0  0  0  0  0  0  0  0  0  0  0  0
    3.4615   -6.6043   -0.1713 O   0  0  0  0  0  0  0  0  0  0  0  0
   -0.7268   -4.1250    0.9039 H   0  0  0  0  0  0  0  0  0  0  0  0
    4.0988   -2.2188   -1.0857 H   0  0  0  0  0  0  0  0  0  0  0  0
   -1.5094   -1.8015    0.8122 H   0  0  0  0  0  0  0  0  0  0  0  0
    4.8816   -4.5455   -0.9930 H   0  0  0  0  0  0  0  0  0  0  0  0
    2.3000   -0.5395   -0.7204 H   0  0  0  0  0  0  0  0  0  0  0  0
    1.0745   -5.8059    0.5379 H   0  0  0  0  0  0  0  0  0  0  0  0
    0.8613    0.9895   -1.8776 H   0  0  0  0  0  0  0  0  0  0  0  0
   -0.7995    0.4016   -2.0928 H   0  0  0  0  0  0  0  0  0  0  0  0
   -0.4963    2.0177   -1.4398 H   0  0  0  0  0  0  0  0  0  0  0  0
    5.0212   -7.9174   -0.5095 H   0  0  0  0  0  0  0  0  0  0  0  0
    5.4929   -6.2706    0.0134 H   0  0  0  0  0  0  0  0  0  0  0  0
    4.8995   -6.5483   -1.6452 H   0  0  0  0  0  0  0  0  0  0  0  0
   -1.1783    0.4161    0.3462 H   0  0  0  0  0  0  0  0  0  0  0  0
    0.6869    3.2148    1.4861 H   0  0  0  0  0  0  0  0  0  0  0  0
  1  3  2  0  0  0  0
  1  8  1  0  0  0  0
  2  4  1  0  0  0  0
  2  7  2  0  0  0  0
  3  9  1  0  0  0  0
  4 10  2  0  0  0  0
  5  7  1  0  0  0  0
  5  9  2  0  0  0  0
  6  8  2  0  0  0  0
  6 10  1  0  0  0  0
  7  8  1  0  0  0  0
  9 14  1  0  0  0  0
 10 17  1  0  0  0  0
 11 14  1  0  0  0  0
 11 15  2  0  0  0  0
 11 16  1  0  0  0  0
 12 14  1  0  0  0  0
 13 17  1  0  0  0  0
  1 18  1  0  0  0  0
  2 19  1  0  0  0  0
  3 20  1  0  0  0  0
  4 21  1  0  0  0  0
  5 22  1  0  0  0  0
  6 23  1  0  0  0  0
 12 24  1  0  0  0  0
 12 25  1  0  0  0  0
 12 26  1  0  0  0  0
 13 27  1  0  0  0  0
 13 28  1  0  0  0  0
 13 29  1  0  0  0  0
 14 30  1  0  0  0  0
 16 31  1  0  0  0  0
M  END
$$$$
