1-ethyl-6-fluoro-4-oxo-7-piperazin-1-yl-quinoline-3-carboxylic acid
  -OEChem-02121815203D

 41 43  0     0  0  0  0  0  0999 V2000
    5.4510    0.6061    2.9120 C   0  0  0  0  0  0  0  0  0  0  0  0
    4.3593   -1.9295    3.3069 C   0  0  0  0  0  0  0  0  0  0  0  0
    6.1527   -0.3600    3.6457 C   0  0  0  0  0  0  0  0  0  0  0  0
    5.6222   -1.6537    3.8608 C   0  0  0  0  0  0  0  0  0  0  0  0
    3.6591   -0.9653    2.5746 C   0  0  0  0  0  0  0  0  0  0  0  0
    4.2037    0.2991    2.3778 C   0  0  0  0  0  0  0  0  0  0  0  0
    7.6001   -2.2397    5.1170 C   0  0  0  0  0  0  0  0  0  0  0  0
    7.4840   -0.0032    4.2047 C   0  0  0  0  0  0  0  0  0  0  0  0
    8.1934   -1.0515    4.9749 C   0  0  0  0  0  0  0  0  0  0  0  0
    9.5082   -0.8536    5.5865 C   0  0  0  0  0  0  0  0  0  0  0  0
    0.7562   -1.0528    0.2223 C   0  0  0  0  0  0  0  0  0  0  0  0
    0.0863   -2.0676    2.2878 C   0  0  0  0  0  0  0  0  0  0  0  0
    2.2349   -1.1928    0.5817 C   0  0  0  0  0  0  0  0  0  0  0  0
    1.5404   -2.2439    2.7248 C   0  0  0  0  0  0  0  0  0  0  0  0
    4.7342   -3.9013    5.8605 C   0  0  0  0  0  0  0  0  0  0  0  0
    5.8021   -3.9290    4.8207 C   0  0  0  0  0  0  0  0  0  0  0  0
   -0.0439   -2.1137    0.8325 N   0  0  0  0  0  0  0  0  0  0  0  0
    6.3653   -2.5981    4.6079 N   0  0  0  0  0  0  0  0  0  0  0  0
    2.4044   -1.2770    2.0387 N   0  0  0  0  0  0  0  0  0  0  0  0
    7.9728    1.1070    4.0367 O   0  0  0  0  0  0  0  0  0  0  0  0
   10.3320   -1.7354    5.7552 O   0  0  0  0  0  0  0  0  0  0  0  0
    9.6591    0.4433    5.9290 O   0  0  0  0  0  0  0  0  0  0  0  0
    3.5372    1.2275    1.6772 F   0  0  0  0  0  0  0  0  0  0  0  0
    5.8605    1.5990    2.7480 H   0  0  0  0  0  0  0  0  0  0  0  0
    3.8963   -2.9051    3.4367 H   0  0  0  0  0  0  0  0  0  0  0  0
    8.0775   -3.0412    5.6724 H   0  0  0  0  0  0  0  0  0  0  0  0
    0.3811   -0.0720    0.5406 H   0  0  0  0  0  0  0  0  0  0  0  0
    0.6440   -1.1005   -0.8664 H   0  0  0  0  0  0  0  0  0  0  0  0
   -0.5207   -2.8665    2.7274 H   0  0  0  0  0  0  0  0  0  0  0  0
   -0.3099   -1.1173    2.6673 H   0  0  0  0  0  0  0  0  0  0  0  0
    2.6540   -2.0937    0.1070 H   0  0  0  0  0  0  0  0  0  0  0  0
    2.7842   -0.3280    0.1815 H   0  0  0  0  0  0  0  0  0  0  0  0
    1.6047   -2.1099    3.8147 H   0  0  0  0  0  0  0  0  0  0  0  0
    1.8787   -3.2678    2.5020 H   0  0  0  0  0  0  0  0  0  0  0  0
    5.1320   -3.5535    6.8201 H   0  0  0  0  0  0  0  0  0  0  0  0
    3.9084   -3.2498    5.5546 H   0  0  0  0  0  0  0  0  0  0  0  0
    4.3325   -4.9111    6.0073 H   0  0  0  0  0  0  0  0  0  0  0  0
    5.3981   -4.2771    3.8653 H   0  0  0  0  0  0  0  0  0  0  0  0
    6.6187   -4.5923    5.1206 H   0  0  0  0  0  0  0  0  0  0  0  0
   -1.0229   -1.9848    0.5784 H   0  0  0  0  0  0  0  0  0  0  0  0
   10.5312    0.6153    6.3437 H   0  0  0  0  0  0  0  0  0  0  0  0
  1  3  2  0  0  0  0
  1  6  1  0  0  0  0
  2  4  2  0  0  0  0
  2  5  1  0  0  0  0
  3  4  1  0  0  0  0
  3  8  1  0  0  0  0
  4 18  1  0  0  0  0
  5  6  2  0  0  0  0
  5 19  1  0  0  0  0
  6 23  1  0  0  0  0
  7  9  2  0  0  0  0
  7 18  1  0  0  0  0
  8  9  1  0  0  0  0
  8 20  2  0  0  0  0
  9 10  1  0  0  0  0
 10 21  2  0  0  0  0
 10 22  1  0  0  0  0
 11 13  1  0  0  0  0
 11 17  1  0  0  0  0
 12 14  1  0  0  0  0
 12 17  1  0  0  0  0
 13 19  1  0  0  0  0
 14 19  1  0  0  0  0
 15 16  1  0  0  0  0
 16 18  1  0  0  0  0
  1 24  1  0  0  0  0
  2 25  1  0  0  0  0
  7 26  1  0  0  0  0
 11 27  1  0  0  0  0
 11 28  1  0  0  0  0
 12 29  1  0  0  0  0
 12 30  1  0  0  0  0
 13 31  1  0  0  0  0
 13 32  1  0  0  0  0
 14 33  1  0  0  0  0
 14 34  1  0  0  0  0
 15 35  1  0  0  0  0
 15 36  1  0  0  0  0
 15 37  1  0  0  0  0
 16 38  1  0  0  0  0
 16 39  1  0  0  0  0
 17 40  1  0  0  0  0
 22 41  1  0  0  0  0
M  END
$$$$
