~{N}-methyl-3-(2-tricyclo[9.4.0.0^{3,8}]pentadeca-1(15),3(8),4,6,11,13-hexaenyli
  -OEChem-02121815203D

 41 43  0     0  0  0  0  0  0999 V2000
    5.1335   -5.2266    2.6098 C   0  0  0  0  0  0  0  0  0  0  0  0
    0.6084   -0.7918   -0.4271 C   0  0  0  0  0  0  0  0  0  0  0  0
    6.1545   -5.1701    1.6742 C   0  0  0  0  0  0  0  0  0  0  0  0
    1.0415   -0.7021   -1.7474 C   0  0  0  0  0  0  0  0  0  0  0  0
    3.8346   -4.8810    2.2381 C   0  0  0  0  0  0  0  0  0  0  0  0
    0.9570   -1.8977    0.3477 C   0  0  0  0  0  0  0  0  0  0  0  0
    5.8727   -4.7647    0.3714 C   0  0  0  0  0  0  0  0  0  0  0  0
    1.8263   -1.7166   -2.2954 C   0  0  0  0  0  0  0  0  0  0  0  0
    3.5225   -4.4848    0.9186 C   0  0  0  0  0  0  0  0  0  0  0  0
    1.7423   -2.9254   -0.1966 C   0  0  0  0  0  0  0  0  0  0  0  0
    4.5638   -4.4198   -0.0338 C   0  0  0  0  0  0  0  0  0  0  0  0
    2.1842   -2.8333   -1.5268 C   0  0  0  0  0  0  0  0  0  0  0  0
    2.1181   -4.1029    0.6141 C   0  0  0  0  0  0  0  0  0  0  0  0
    1.1124   -4.9097    1.0052 C   0  0  0  0  0  0  0  0  0  0  0  0
    4.4302   -3.9644   -1.4762 C   0  0  0  0  0  0  0  0  0  0  0  0
    3.0419   -3.9235   -2.1164 C   0  0  0  0  0  0  0  0  0  0  0  0
   -3.3579   -6.8391    0.3835 C   0  0  0  0  0  0  0  0  0  0  0  0
   -0.3325   -4.6184    0.7493 C   0  0  0  0  0  0  0  0  0  0  0  0
   -1.1743   -5.8891    0.6838 C   0  0  0  0  0  0  0  0  0  0  0  0
   -2.5672   -5.6101    0.4611 N   0  0  0  0  0  0  0  0  0  0  0  0
    5.3412   -5.5466    3.6265 H   0  0  0  0  0  0  0  0  0  0  0  0
   -0.0021   -0.0013   -0.0006 H   0  0  0  0  0  0  0  0  0  0  0  0
    7.1666   -5.4487    1.9513 H   0  0  0  0  0  0  0  0  0  0  0  0
    0.7660    0.1572   -2.3519 H   0  0  0  0  0  0  0  0  0  0  0  0
    3.0585   -4.9382    2.9996 H   0  0  0  0  0  0  0  0  0  0  0  0
    0.6079   -1.9505    1.3765 H   0  0  0  0  0  0  0  0  0  0  0  0
    6.6917   -4.7205   -0.3447 H   0  0  0  0  0  0  0  0  0  0  0  0
    2.1540   -1.6308   -3.3283 H   0  0  0  0  0  0  0  0  0  0  0  0
    1.3629   -5.8143    1.5439 H   0  0  0  0  0  0  0  0  0  0  0  0
    4.8280   -2.9418   -1.5350 H   0  0  0  0  0  0  0  0  0  0  0  0
    5.0901   -4.5974   -2.0849 H   0  0  0  0  0  0  0  0  0  0  0  0
    2.5566   -4.8946   -1.9547 H   0  0  0  0  0  0  0  0  0  0  0  0
    3.1086   -3.8020   -3.2048 H   0  0  0  0  0  0  0  0  0  0  0  0
   -3.2488   -7.4149    1.3063 H   0  0  0  0  0  0  0  0  0  0  0  0
   -3.0209   -7.4530   -0.4562 H   0  0  0  0  0  0  0  0  0  0  0  0
   -4.4151   -6.6000    0.2408 H   0  0  0  0  0  0  0  0  0  0  0  0
   -0.4613   -4.0396   -0.1736 H   0  0  0  0  0  0  0  0  0  0  0  0
   -0.6986   -3.9920    1.5715 H   0  0  0  0  0  0  0  0  0  0  0  0
   -1.1050   -6.4329    1.6314 H   0  0  0  0  0  0  0  0  0  0  0  0
   -0.8360   -6.5563   -0.1160 H   0  0  0  0  0  0  0  0  0  0  0  0
   -2.6889   -5.0922   -0.4161 H   0  0  0  0  0  0  0  0  0  0  0  0
  1  3  1  0  0  0  0
  1  5  2  0  0  0  0
  2  4  2  0  0  0  0
  2  6  1  0  0  0  0
  3  7  2  0  0  0  0
  4  8  1  0  0  0  0
  5  9  1  0  0  0  0
  6 10  2  0  0  0  0
  7 11  1  0  0  0  0
  8 12  2  0  0  0  0
  9 11  2  0  0  0  0
  9 13  1  0  0  0  0
 10 12  1  0  0  0  0
 10 13  1  0  0  0  0
 11 15  1  0  0  0  0
 12 16  1  0  0  0  0
 13 14  2  3  0  0  0
 14 18  1  0  0  0  0
 15 16  1  0  0  0  0
 17 20  1  0  0  0  0
 18 19  1  0  0  0  0
 19 20  1  0  0  0  0
  1 21  1  0  0  0  0
  2 22  1  0  0  0  0
  3 23  1  0  0  0  0
  4 24  1  0  0  0  0
  5 25  1  0  0  0  0
  6 26  1  0  0  0  0
  7 27  1  0  0  0  0
  8 28  1  0  0  0  0
 14 29  1  0  0  0  0
 15 30  1  0  0  0  0
 15 31  1  0  0  0  0
 16 32  1  0  0  0  0
 16 33  1  0  0  0  0
 17 34  1  0  0  0  0
 17 35  1  0  0  0  0
 17 36  1  0  0  0  0
 18 37  1  0  0  0  0
 18 38  1  0  0  0  0
 19 39  1  0  0  0  0
 19 40  1  0  0  0  0
 20 41  1  0  0  0  0
M  END
$$$$
