7-fluoro-2-methyl-6-(4-methylpiperazin-1-yl)-10-oxo-4-oxa-1-azatricyclo[7.3.1.0^
  -OEChem-02121815203D

 46 49  0     1  0  0  0  0  0999 V2000
    2.5170    0.0171    4.0847 C   0  0  0  0  0  0  0  0  0  0  0  0
    1.4060   -0.5920    4.6775 C   0  0  0  0  0  0  0  0  0  0  0  0
    0.4477   -1.2650    3.8952 C   0  0  0  0  0  0  0  0  0  0  0  0
    1.7377   -0.6944    1.9097 C   0  0  0  0  0  0  0  0  0  0  0  0
    0.6197   -1.2839    2.5029 C   0  0  0  0  0  0  0  0  0  0  0  0
    2.6820   -0.0429    2.7014 C   0  0  0  0  0  0  0  0  0  0  0  0
   -0.7861   -1.8538    5.8822 C   0  0  0  0  0  0  0  0  0  0  0  0
    1.2343   -0.5382    6.1539 C   0  0  0  0  0  0  0  0  0  0  0  0
    0.0474   -1.2304    6.7213 C   0  0  0  0  0  0  0  0  0  0  0  0
   -0.2470   -1.2675    8.2027 C   0  0  0  0  0  0  0  0  0  0  0  0
    3.1125   -1.3822   -0.0344 C   0  0  0  0  0  0  0  0  0  0  0  0
    1.3533    0.3535   -0.2810 C   0  0  0  0  0  0  0  0  0  0  0  0
    2.8811   -1.7665   -1.4980 C   0  0  0  0  0  0  0  0  0  0  0  0
    1.1779   -0.0876   -1.7359 C   0  0  0  0  0  0  0  0  0  0  0  0
   -1.5746   -2.0097    2.2533 C   0  0  0  0  0  0  0  0  0  0  0  0
   -1.5211   -2.6814    3.6263 C   0  0  1  0  0  0  0  0  0  0  0  0
   -1.0294   -4.1288    3.5405 C   0  0  0  0  0  0  0  0  0  0  0  0
    2.2707   -0.9761   -3.6895 C   0  0  0  0  0  0  0  0  0  0  0  0
   -0.6475   -1.9051    4.5102 N   0  0  0  0  0  0  0  0  0  0  0  0
    1.9200   -0.7367    0.5229 N   0  0  0  0  0  0  0  0  0  0  0  0
    2.4364   -0.6090   -2.2836 N   0  0  0  0  0  0  0  0  0  0  0  0
    2.0360    0.0481    6.8698 O   0  0  0  0  0  0  0  0  0  0  0  0
   -1.3641   -1.3387    8.6841 O   0  0  0  0  0  0  0  0  0  0  0  0
   -0.2769   -1.8954    1.6609 O   0  0  0  0  0  0  0  0  0  0  0  0
    0.9093   -1.2097    8.8970 O   0  0  0  0  0  0  0  0  0  0  0  0
    3.7547    0.5355    2.1419 F   0  0  0  0  0  0  0  0  0  0  0  0
    3.2629    0.5342    4.6817 H   0  0  0  0  0  0  0  0  0  0  0  0
   -1.6625   -2.3871    6.2368 H   0  0  0  0  0  0  0  0  0  0  0  0
    3.3603   -2.2889    0.5371 H   0  0  0  0  0  0  0  0  0  0  0  0
    3.9752   -0.7021    0.0437 H   0  0  0  0  0  0  0  0  0  0  0  0
    2.0135    1.2336   -0.2316 H   0  0  0  0  0  0  0  0  0  0  0  0
    0.3752    0.6572    0.1205 H   0  0  0  0  0  0  0  0  0  0  0  0
    3.8235   -2.1557   -1.9024 H   0  0  0  0  0  0  0  0  0  0  0  0
    2.1429   -2.5782   -1.5520 H   0  0  0  0  0  0  0  0  0  0  0  0
    0.3856   -0.8459   -1.7974 H   0  0  0  0  0  0  0  0  0  0  0  0
    0.8448    0.7798   -2.3187 H   0  0  0  0  0  0  0  0  0  0  0  0
   -2.1968   -2.5970    1.5690 H   0  0  0  0  0  0  0  0  0  0  0  0
   -2.0239   -1.0095    2.3177 H   0  0  0  0  0  0  0  0  0  0  0  0
   -2.5404   -2.6911    4.0342 H   0  0  0  0  0  0  0  0  0  0  0  0
   -0.0191   -4.1482    3.1385 H   0  0  0  0  0  0  0  0  0  0  0  0
   -1.6866   -4.6999    2.8891 H   0  0  0  0  0  0  0  0  0  0  0  0
   -1.0303   -4.5743    4.5326 H   0  0  0  0  0  0  0  0  0  0  0  0
    1.9396   -0.1095   -4.2676 H   0  0  0  0  0  0  0  0  0  0  0  0
    1.5255   -1.7702   -3.7875 H   0  0  0  0  0  0  0  0  0  0  0  0
    3.2188   -1.3325   -4.1013 H   0  0  0  0  0  0  0  0  0  0  0  0
    0.7580   -1.2313    9.8660 H   0  0  0  0  0  0  0  0  0  0  0  0
  1  2  1  0  0  0  0
  1  6  2  0  0  0  0
  2  3  2  0  0  0  0
  2  8  1  0  0  0  0
  3  5  1  0  0  0  0
  3 19  1  0  0  0  0
  4  5  2  0  0  0  0
  4  6  1  0  0  0  0
  4 20  1  0  0  0  0
  5 24  1  0  0  0  0
  6 26  1  0  0  0  0
  7  9  2  0  0  0  0
  7 19  1  0  0  0  0
  8  9  1  0  0  0  0
  8 22  2  0  0  0  0
  9 10  1  0  0  0  0
 10 23  2  0  0  0  0
 10 25  1  0  0  0  0
 11 13  1  0  0  0  0
 11 20  1  0  0  0  0
 12 14  1  0  0  0  0
 12 20  1  0  0  0  0
 13 21  1  0  0  0  0
 14 21  1  0  0  0  0
 15 16  1  0  0  0  0
 15 24  1  0  0  0  0
 16 17  1  0  0  0  0
 16 19  1  0  0  0  0
 18 21  1  0  0  0  0
  1 27  1  0  0  0  0
  7 28  1  0  0  0  0
 11 29  1  0  0  0  0
 11 30  1  0  0  0  0
 12 31  1  0  0  0  0
 12 32  1  0  0  0  0
 13 33  1  0  0  0  0
 13 34  1  0  0  0  0
 14 35  1  0  0  0  0
 14 36  1  0  0  0  0
 15 37  1  0  0  0  0
 15 38  1  0  0  0  0
 16 39  1  0  0  0  0
 17 40  1  0  0  0  0
 17 41  1  0  0  0  0
 17 42  1  0  0  0  0
 18 43  1  0  0  0  0
 18 44  1  0  0  0  0
 18 45  1  0  0  0  0
 25 46  1  0  0  0  0
M  END
$$$$
