5-ethyl-5-phenyl-hexahydropyrimidine-2,4,6-trione
  -OEChem-02121815213D

 29 30  0     0  0  0  0  0  0999 V2000
    0.4815    0.9481   -2.6478 C   0  0  0  0  0  0  0  0  0  0  0  0
    0.2479   -0.1486   -1.8182 C   0  0  0  0  0  0  0  0  0  0  0  0
    0.4743    2.2381   -2.1173 C   0  0  0  0  0  0  0  0  0  0  0  0
    0.0069    0.0447   -0.4580 C   0  0  0  0  0  0  0  0  0  0  0  0
    0.2332    2.4314   -0.7570 C   0  0  0  0  0  0  0  0  0  0  0  0
   -0.0005    1.3347    0.0726 C   0  0  0  0  0  0  0  0  0  0  0  0
   -1.6448    0.9839    1.8771 C   0  0  0  0  0  0  0  0  0  0  0  0
    0.9113    0.9614    2.3337 C   0  0  0  0  0  0  0  0  0  0  0  0
   -0.5868   -0.7965    3.2497 C   0  0  0  0  0  0  0  0  0  0  0  0
   -0.2603    1.5437    1.5381 C   0  0  0  0  0  0  0  0  0  0  0  0
   -0.5531    3.3267    3.2655 C   0  0  0  0  0  0  0  0  0  0  0  0
   -0.2979    3.0518    1.8229 C   0  0  0  0  0  0  0  0  0  0  0  0
   -1.6644   -0.1622    2.6515 N   0  0  0  0  0  0  0  0  0  0  0  0
    0.6424   -0.1836    3.0617 N   0  0  0  0  0  0  0  0  0  0  0  0
   -2.6814    1.5035    1.4582 O   0  0  0  0  0  0  0  0  0  0  0  0
    2.0372    1.4627    2.3024 O   0  0  0  0  0  0  0  0  0  0  0  0
   -0.7155   -1.8229    3.9196 O   0  0  0  0  0  0  0  0  0  0  0  0
    0.6705    0.7973   -3.7067 H   0  0  0  0  0  0  0  0  0  0  0  0
    0.2546   -1.1532   -2.2310 H   0  0  0  0  0  0  0  0  0  0  0  0
    0.6572    3.0921   -2.7627 H   0  0  0  0  0  0  0  0  0  0  0  0
   -0.1744   -0.8157    0.1808 H   0  0  0  0  0  0  0  0  0  0  0  0
    0.2293    3.4401   -0.3525 H   0  0  0  0  0  0  0  0  0  0  0  0
   -1.5137    2.8843    3.5546 H   0  0  0  0  0  0  0  0  0  0  0  0
   -0.6038    4.4037    3.4577 H   0  0  0  0  0  0  0  0  0  0  0  0
    0.2273    2.8847    3.8939 H   0  0  0  0  0  0  0  0  0  0  0  0
    0.6560    3.4876    1.5238 H   0  0  0  0  0  0  0  0  0  0  0  0
   -1.0818    3.5029    1.2136 H   0  0  0  0  0  0  0  0  0  0  0  0
   -2.5786   -0.5700    2.8271 H   0  0  0  0  0  0  0  0  0  0  0  0
    1.4387   -0.6273    3.5112 H   0  0  0  0  0  0  0  0  0  0  0  0
  1  2  1  0  0  0  0
  1  3  2  0  0  0  0
  2  4  2  0  0  0  0
  3  5  1  0  0  0  0
  4  6  1  0  0  0  0
  5  6  2  0  0  0  0
  6 10  1  0  0  0  0
  7 10  1  0  0  0  0
  7 13  1  0  0  0  0
  7 15  2  0  0  0  0
  8 10  1  0  0  0  0
  8 14  1  0  0  0  0
  8 16  2  0  0  0  0
  9 13  1  0  0  0  0
  9 14  1  0  0  0  0
  9 17  2  0  0  0  0
 10 12  1  0  0  0  0
 11 12  1  0  0  0  0
  1 18  1  0  0  0  0
  2 19  1  0  0  0  0
  3 20  1  0  0  0  0
  4 21  1  0  0  0  0
  5 22  1  0  0  0  0
 11 23  1  0  0  0  0
 11 24  1  0  0  0  0
 11 25  1  0  0  0  0
 12 26  1  0  0  0  0
 12 27  1  0  0  0  0
 13 28  1  0  0  0  0
 14 29  1  0  0  0  0
M  END
$$$$
