phthalic acid
  -OEChem-02121815213D

 18 18  0     0  0  0  0  0  0999 V2000
    1.8851   -1.0363   -0.1124 C   0  0  0  0  0  0  0  0  0  0  0  0
    0.8066   -0.4630    0.5610 C   0  0  0  0  0  0  0  0  0  0  0  0
    2.9210   -1.6309    0.6081 C   0  0  0  0  0  0  0  0  0  0  0  0
    0.7638   -0.4841    1.9551 C   0  0  0  0  0  0  0  0  0  0  0  0
    2.8783   -1.6520    2.0022 C   0  0  0  0  0  0  0  0  0  0  0  0
    1.7997   -1.0786    2.6757 C   0  0  0  0  0  0  0  0  0  0  0  0
    3.9754   -2.2804    2.7264 C   0  0  0  0  0  0  0  0  0  0  0  0
    1.7261   -1.0850    4.1309 C   0  0  0  0  0  0  0  0  0  0  0  0
    4.3657   -1.9567    3.8512 O   0  0  0  0  0  0  0  0  0  0  0  0
    1.7093   -2.0946    4.8398 O   0  0  0  0  0  0  0  0  0  0  0  0
    4.5478   -3.2935    2.0219 O   0  0  0  0  0  0  0  0  0  0  0  0
    1.6772    0.1704    4.6523 O   0  0  0  0  0  0  0  0  0  0  0  0
    1.9183   -1.0200   -1.1979 H   0  0  0  0  0  0  0  0  0  0  0  0
    0.0001   -0.0000   -0.0001 H   0  0  0  0  0  0  0  0  0  0  0  0
    3.7563   -2.0742    0.0720 H   0  0  0  0  0  0  0  0  0  0  0  0
   -0.0819   -0.0341    2.4686 H   0  0  0  0  0  0  0  0  0  0  0  0
    5.2874   -3.7239    2.5016 H   0  0  0  0  0  0  0  0  0  0  0  0
    1.6283    0.1770    5.6320 H   0  0  0  0  0  0  0  0  0  0  0  0
  1  2  1  0  0  0  0
  1  3  2  0  0  0  0
  2  4  2  0  0  0  0
  3  5  1  0  0  0  0
  4  6  1  0  0  0  0
  5  6  2  0  0  0  0
  5  7  1  0  0  0  0
  6  8  1  0  0  0  0
  7  9  2  0  0  0  0
  7 11  1  0  0  0  0
  8 10  2  0  0  0  0
  8 12  1  0  0  0  0
  1 13  1  0  0  0  0
  2 14  1  0  0  0  0
  3 15  1  0  0  0  0
  4 16  1  0  0  0  0
 11 17  1  0  0  0  0
 12 18  1  0  0  0  0
M  END
$$$$
