1-(1~{H}-indol-4-yloxy)-3-(isopropylamino)propan-2-ol
  -OEChem-02121815213D

 38 39  0     1  0  0  0  0  0999 V2000
   -2.0982   -0.5754    1.8506 C   0  0  0  0  0  0  0  0  0  0  0  0
   -0.9225   -0.7922    1.1264 C   0  0  0  0  0  0  0  0  0  0  0  0
   -2.3102    0.6194    2.5356 C   0  0  0  0  0  0  0  0  0  0  0  0
    1.0043    2.2317    1.5610 C   0  0  0  0  0  0  0  0  0  0  0  0
    1.8555    1.5028    0.7628 C   0  0  0  0  0  0  0  0  0  0  0  0
   -0.1555    1.4405    1.7931 C   0  0  0  0  0  0  0  0  0  0  0  0
    0.0297    0.2332    1.1161 C   0  0  0  0  0  0  0  0  0  0  0  0
   -1.3488    1.6364    2.5165 C   0  0  0  0  0  0  0  0  0  0  0  0
    2.0580    5.2410    4.0238 C   0  0  0  0  0  0  0  0  0  0  0  0
    2.5325    5.1256    6.4951 C   0  0  0  0  0  0  0  0  0  0  0  0
   -0.8332    5.0230    4.9750 C   0  0  0  0  0  0  0  0  0  0  0  0
   -1.7886    2.6871    4.6041 C   0  0  0  0  0  0  0  0  0  0  0  0
    1.4910    5.4178    5.4249 C   0  0  0  0  0  0  0  0  0  0  0  0
   -2.0189    4.0804    5.1815 C   0  0  2  0  0  0  0  0  0  0  0  0
    1.2588    0.2990    0.4995 N   0  0  0  0  0  0  0  0  0  0  0  0
    0.3621    4.5079    5.6025 N   0  0  0  0  0  0  0  0  0  0  0  0
   -3.1858    4.6363    4.5744 O   0  0  0  0  0  0  0  0  0  0  0  0
   -1.5869    2.7990    3.2000 O   0  0  0  0  0  0  0  0  0  0  0  0
   -2.8579   -1.3525    1.8791 H   0  0  0  0  0  0  0  0  0  0  0  0
   -0.7584   -1.7228    0.5933 H   0  0  0  0  0  0  0  0  0  0  0  0
   -3.2346    0.7586    3.0908 H   0  0  0  0  0  0  0  0  0  0  0  0
    1.1973    3.2278    1.9359 H   0  0  0  0  0  0  0  0  0  0  0  0
    2.8312    1.7335    0.3591 H   0  0  0  0  0  0  0  0  0  0  0  0
    2.4335    4.2225    3.8808 H   0  0  0  0  0  0  0  0  0  0  0  0
    1.2992    5.4358    3.2577 H   0  0  0  0  0  0  0  0  0  0  0  0
    2.8871    5.9356    3.8496 H   0  0  0  0  0  0  0  0  0  0  0  0
    2.9166    4.1045    6.3945 H   0  0  0  0  0  0  0  0  0  0  0  0
    2.1021    5.2287    7.4966 H   0  0  0  0  0  0  0  0  0  0  0  0
    3.3870    5.8074    6.4191 H   0  0  0  0  0  0  0  0  0  0  0  0
   -0.6331    5.1435    3.9050 H   0  0  0  0  0  0  0  0  0  0  0  0
   -1.0585    6.0119    5.3878 H   0  0  0  0  0  0  0  0  0  0  0  0
   -2.6577    2.0434    4.7716 H   0  0  0  0  0  0  0  0  0  0  0  0
   -0.8956    2.2183    5.0297 H   0  0  0  0  0  0  0  0  0  0  0  0
    1.1220    6.4422    5.5451 H   0  0  0  0  0  0  0  0  0  0  0  0
   -2.2332    3.9975    6.2536 H   0  0  0  0  0  0  0  0  0  0  0  0
    1.6618   -0.4358   -0.0654 H   0  0  0  0  0  0  0  0  0  0  0  0
    0.1999    4.3787    6.6048 H   0  0  0  0  0  0  0  0  0  0  0  0
   -3.3411    5.4879    5.0098 H   0  0  0  0  0  0  0  0  0  0  0  0
  1  2  1  0  0  0  0
  1  3  2  0  0  0  0
  2  7  2  0  0  0  0
  3  8  1  0  0  0  0
  4  5  2  0  0  0  0
  4  6  1  0  0  0  0
  5 15  1  0  0  0  0
  6  7  1  0  0  0  0
  6  8  2  0  0  0  0
  7 15  1  0  0  0  0
  8 18  1  0  0  0  0
  9 13  1  0  0  0  0
 10 13  1  0  0  0  0
 11 14  1  0  0  0  0
 11 16  1  0  0  0  0
 12 14  1  0  0  0  0
 12 18  1  0  0  0  0
 13 16  1  0  0  0  0
 14 17  1  0  0  0  0
  1 19  1  0  0  0  0
  2 20  1  0  0  0  0
  3 21  1  0  0  0  0
  4 22  1  0  0  0  0
  5 23  1  0  0  0  0
  9 24  1  0  0  0  0
  9 25  1  0  0  0  0
  9 26  1  0  0  0  0
 10 27  1  0  0  0  0
 10 28  1  0  0  0  0
 10 29  1  0  0  0  0
 11 30  1  0  0  0  0
 11 31  1  0  0  0  0
 12 32  1  0  0  0  0
 12 33  1  0  0  0  0
 13 34  1  0  0  0  0
 14 35  1  0  0  0  0
 15 36  1  0  0  0  0
 16 37  1  0  0  0  0
 17 38  1  0  0  0  0
M  END
$$$$
