4-amino-~{N}-[2-(diethylamino)ethyl]benzamide
  -OEChem-02121815213D

 38 38  0     0  0  0  0  0  0999 V2000
    5.1724    1.2282    4.9026 C   0  0  0  0  0  0  0  0  0  0  0  0
    4.5682   -1.0860    5.2439 C   0  0  0  0  0  0  0  0  0  0  0  0
    5.8263    1.2392    6.1346 C   0  0  0  0  0  0  0  0  0  0  0  0
    5.2222   -1.0751    6.4759 C   0  0  0  0  0  0  0  0  0  0  0  0
    4.5433    0.0656    4.4572 C   0  0  0  0  0  0  0  0  0  0  0  0
    5.8512    0.0876    6.9213 C   0  0  0  0  0  0  0  0  0  0  0  0
    3.8468    0.0540    3.1451 C   0  0  0  0  0  0  0  0  0  0  0  0
    0.1851   -0.7319   -1.9630 C   0  0  0  0  0  0  0  0  0  0  0  0
   -1.2045   -1.8866    0.9955 C   0  0  0  0  0  0  0  0  0  0  0  0
    0.7669   -0.5542   -0.6019 C   0  0  0  0  0  0  0  0  0  0  0  0
   -0.2048   -2.6143    0.1625 C   0  0  0  0  0  0  0  0  0  0  0  0
    3.1402   -1.3472    1.2232 C   0  0  0  0  0  0  0  0  0  0  0  0
    1.6567   -1.6543    1.3398 C   0  0  0  0  0  0  0  0  0  0  0  0
    6.5124    0.0987    8.1670 N   0  0  0  0  0  0  0  0  0  0  0  0
    3.7622   -1.1786    2.5091 N   0  0  0  0  0  0  0  0  0  0  0  0
    1.0323   -1.8455    0.0312 N   0  0  0  0  0  0  0  0  0  0  0  0
    3.4098    1.1071    2.6884 O   0  0  0  0  0  0  0  0  0  0  0  0
    5.1592    2.1312    4.2977 H   0  0  0  0  0  0  0  0  0  0  0  0
    4.0813   -1.9974    4.9066 H   0  0  0  0  0  0  0  0  0  0  0  0
    6.3133    2.1506    6.4721 H   0  0  0  0  0  0  0  0  0  0  0  0
    5.2355   -1.9780    7.0810 H   0  0  0  0  0  0  0  0  0  0  0  0
    0.8729   -1.2835   -2.6130 H   0  0  0  0  0  0  0  0  0  0  0  0
   -0.7702   -1.2656   -1.9124 H   0  0  0  0  0  0  0  0  0  0  0  0
    0.0017    0.2482   -2.4193 H   0  0  0  0  0  0  0  0  0  0  0  0
   -0.8171   -1.7089    2.0046 H   0  0  0  0  0  0  0  0  0  0  0  0
   -1.4708   -0.9281    0.5370 H   0  0  0  0  0  0  0  0  0  0  0  0
   -2.1191   -2.4849    1.0852 H   0  0  0  0  0  0  0  0  0  0  0  0
    0.0750   -0.0027    0.0418 H   0  0  0  0  0  0  0  0  0  0  0  0
    1.7129   -0.0072   -0.6527 H   0  0  0  0  0  0  0  0  0  0  0  0
   -0.5980   -2.7884   -0.8436 H   0  0  0  0  0  0  0  0  0  0  0  0
    0.0482   -3.5782    0.6138 H   0  0  0  0  0  0  0  0  0  0  0  0
    3.3144   -0.4294    0.6528 H   0  0  0  0  0  0  0  0  0  0  0  0
    3.6566   -2.1720    0.7224 H   0  0  0  0  0  0  0  0  0  0  0  0
    1.5044   -2.5780    1.9065 H   0  0  0  0  0  0  0  0  0  0  0  0
    1.1204   -0.8447    1.8452 H   0  0  0  0  0  0  0  0  0  0  0  0
    6.9995    0.9237    8.4535 H   0  0  0  0  0  0  0  0  0  0  0  0
    6.5634   -0.7462    8.6996 H   0  0  0  0  0  0  0  0  0  0  0  0
    4.2058   -1.9947    2.9256 H   0  0  0  0  0  0  0  0  0  0  0  0
  1  3  1  0  0  0  0
  1  5  2  0  0  0  0
  2  4  2  0  0  0  0
  2  5  1  0  0  0  0
  3  6  2  0  0  0  0
  4  6  1  0  0  0  0
  5  7  1  0  0  0  0
  6 14  1  0  0  0  0
  7 15  1  0  0  0  0
  7 17  2  0  0  0  0
  8 10  1  0  0  0  0
  9 11  1  0  0  0  0
 10 16  1  0  0  0  0
 11 16  1  0  0  0  0
 12 13  1  0  0  0  0
 12 15  1  0  0  0  0
 13 16  1  0  0  0  0
  1 18  1  0  0  0  0
  2 19  1  0  0  0  0
  3 20  1  0  0  0  0
  4 21  1  0  0  0  0
  8 22  1  0  0  0  0
  8 23  1  0  0  0  0
  8 24  1  0  0  0  0
  9 25  1  0  0  0  0
  9 26  1  0  0  0  0
  9 27  1  0  0  0  0
 10 28  1  0  0  0  0
 10 29  1  0  0  0  0
 11 30  1  0  0  0  0
 11 31  1  0  0  0  0
 12 32  1  0  0  0  0
 12 33  1  0  0  0  0
 13 34  1  0  0  0  0
 13 35  1  0  0  0  0
 14 36  1  0  0  0  0
 14 37  1  0  0  0  0
 15 38  1  0  0  0  0
M  END
$$$$
