(~{R})-(6-methoxy-4-quinolyl)-[(2~{R},5~{S})-5-vinylquinuclidin-2-yl]methanol
  -OEChem-02121815213D

 48 51  0     1  0  0  0  0  0999 V2000
   -6.4077   -1.3513   -2.0780 C   0  0  0  0  0  0  0  0  0  0  0  0
   -6.8038   -0.6728   -0.9228 C   0  0  0  0  0  0  0  0  0  0  0  0
   -2.5470   -2.8392   -2.4670 C   0  0  0  0  0  0  0  0  0  0  0  0
   -4.6060   -0.9804    0.0000 C   0  0  0  0  0  0  0  0  0  0  0  0
   -3.5061   -2.9783   -3.4496 C   0  0  0  0  0  0  0  0  0  0  0  0
   -4.2078   -1.6628   -1.1620 C   0  0  0  0  0  0  0  0  0  0  0  0
   -2.9094   -2.1699   -1.3069 C   0  0  0  0  0  0  0  0  0  0  0  0
   -5.1179   -1.8551   -2.2225 C   0  0  0  0  0  0  0  0  0  0  0  0
   -5.9021   -0.4868    0.1177 C   0  0  0  0  0  0  0  0  0  0  0  0
   -0.3078    3.1467    2.3434 C   0  0  0  0  0  0  0  0  0  0  0  0
    0.3347    2.2148    1.6312 C   0  0  0  0  0  0  0  0  0  0  0  0
    1.3896    0.7757   -0.9211 C   0  0  0  0  0  0  0  0  0  0  0  0
   -0.9730    0.1144   -1.3047 C   0  0  0  0  0  0  0  0  0  0  0  0
    1.6573   -0.6241   -0.3453 C   0  0  0  0  0  0  0  0  0  0  0  0
    0.0517   -0.2829    1.3944 C   0  0  0  0  0  0  0  0  0  0  0  0
   -0.3503    1.1169    0.8742 C   0  0  2  0  0  0  0  0  0  0  0  0
   -0.0714    1.1755   -0.6462 C   0  0  1  0  0  0  0  0  0  0  0  0
   -0.6210   -1.2803   -0.7407 C   0  0  2  0  0  0  0  0  0  0  0  0
   -7.6276    0.6516    1.2934 C   0  0  0  0  0  0  0  0  0  0  0  0
   -1.8629   -2.0178   -0.2335 C   0  0  2  0  0  0  0  0  0  0  0  0
   -4.7691   -2.5042   -3.3494 N   0  0  0  0  0  0  0  0  0  0  0  0
    0.4453   -1.1919    0.2915 N   0  0  1  0  0  0  0  0  0  0  0  0
   -1.4720   -3.3130    0.2093 O   0  0  0  0  0  0  0  0  0  0  0  0
   -6.2837    0.1736    1.2438 O   0  0  0  0  0  0  0  0  0  0  0  0
   -7.1331   -1.4831   -2.8787 H   0  0  0  0  0  0  0  0  0  0  0  0
   -7.8193   -0.2938   -0.8452 H   0  0  0  0  0  0  0  0  0  0  0  0
   -1.5500   -3.2423   -2.6065 H   0  0  0  0  0  0  0  0  0  0  0  0
   -3.9154   -0.8245    0.8259 H   0  0  0  0  0  0  0  0  0  0  0  0
   -3.2802   -3.4917   -4.3784 H   0  0  0  0  0  0  0  0  0  0  0  0
    0.2473    3.9158    2.8692 H   0  0  0  0  0  0  0  0  0  0  0  0
   -1.3899    3.1605    2.4149 H   0  0  0  0  0  0  0  0  0  0  0  0
    1.4200    2.2429    1.5901 H   0  0  0  0  0  0  0  0  0  0  0  0
    2.0792    1.5027   -0.4774 H   0  0  0  0  0  0  0  0  0  0  0  0
    1.5775    0.7739   -2.0016 H   0  0  0  0  0  0  0  0  0  0  0  0
   -2.0268    0.3642   -1.1317 H   0  0  0  0  0  0  0  0  0  0  0  0
   -0.8164    0.1221   -2.3906 H   0  0  0  0  0  0  0  0  0  0  0  0
    2.0122   -1.2952   -1.1376 H   0  0  0  0  0  0  0  0  0  0  0  0
    2.4753   -0.5795    0.3848 H   0  0  0  0  0  0  0  0  0  0  0  0
    0.8760   -0.2271    2.1183 H   0  0  0  0  0  0  0  0  0  0  0  0
   -0.7806   -0.7201    1.9590 H   0  0  0  0  0  0  0  0  0  0  0  0
   -1.4289    1.2506    1.0326 H   0  0  0  0  0  0  0  0  0  0  0  0
   -0.2873    2.1674   -1.0585 H   0  0  0  0  0  0  0  0  0  0  0  0
   -0.2331   -1.8934   -1.5663 H   0  0  0  0  0  0  0  0  0  0  0  0
   -7.7997    1.1592    2.2457 H   0  0  0  0  0  0  0  0  0  0  0  0
   -8.3183   -0.1885    1.1861 H   0  0  0  0  0  0  0  0  0  0  0  0
   -7.7845    1.3568    0.4738 H   0  0  0  0  0  0  0  0  0  0  0  0
   -2.2545   -1.4770    0.6329 H   0  0  0  0  0  0  0  0  0  0  0  0
   -0.8006   -3.1807    0.8970 H   0  0  0  0  0  0  0  0  0  0  0  0
  1  2  2  0  0  0  0
  1  8  1  0  0  0  0
  2  9  1  0  0  0  0
  3  5  2  0  0  0  0
  3  7  1  0  0  0  0
  4  6  1  0  0  0  0
  4  9  2  0  0  0  0
  5 21  1  0  0  0  0
  6  7  2  0  0  0  0
  6  8  1  0  0  0  0
  7 20  1  0  0  0  0
  8 21  2  0  0  0  0
  9 24  1  0  0  0  0
 10 11  2  0  0  0  0
 11 16  1  0  0  0  0
 12 14  1  0  0  0  0
 12 17  1  0  0  0  0
 13 17  1  0  0  0  0
 13 18  1  0  0  0  0
 14 22  1  0  0  0  0
 15 16  1  0  0  0  0
 15 22  1  0  0  0  0
 16 17  1  0  0  0  0
 18 20  1  0  0  0  0
 18 22  1  0  0  0  0
 19 24  1  0  0  0  0
 20 23  1  0  0  0  0
  1 25  1  0  0  0  0
  2 26  1  0  0  0  0
  3 27  1  0  0  0  0
  4 28  1  0  0  0  0
  5 29  1  0  0  0  0
 10 30  1  0  0  0  0
 10 31  1  0  0  0  0
 11 32  1  0  0  0  0
 12 33  1  0  0  0  0
 12 34  1  0  0  0  0
 13 35  1  0  0  0  0
 13 36  1  0  0  0  0
 14 37  1  0  0  0  0
 14 38  1  0  0  0  0
 15 39  1  0  0  0  0
 15 40  1  0  0  0  0
 16 41  1  0  0  0  0
 17 42  1  0  0  0  0
 18 43  1  0  0  0  0
 19 44  1  0  0  0  0
 19 45  1  0  0  0  0
 19 46  1  0  0  0  0
 20 47  1  0  0  0  0
 23 48  1  0  0  0  0
M  END
$$$$
