6-fluoro-1-(4-fluorophenyl)-4-oxo-7-piperazin-1-yl-quinoline-3-carboxylic acid
  -OEChem-02121815213D

 45 48  0     0  0  0  0  0  0999 V2000
    4.7821   -4.0531    5.7360 C   0  0  0  0  0  0  0  0  0  0  0  0
    6.5424   -5.0892    4.4457 C   0  0  0  0  0  0  0  0  0  0  0  0
    4.2996   -5.3132    6.0896 C   0  0  0  0  0  0  0  0  0  0  0  0
    6.0599   -6.3493    4.7993 C   0  0  0  0  0  0  0  0  0  0  0  0
    5.4389    0.6147    2.9384 C   0  0  0  0  0  0  0  0  0  0  0  0
    4.3786   -1.9428    3.2686 C   0  0  0  0  0  0  0  0  0  0  0  0
    6.1621   -0.3649    3.6326 C   0  0  0  0  0  0  0  0  0  0  0  0
    5.9035   -3.9411    4.9140 C   0  0  0  0  0  0  0  0  0  0  0  0
    5.6368   -1.6612    3.8327 C   0  0  0  0  0  0  0  0  0  0  0  0
    3.6591   -0.9653    2.5746 C   0  0  0  0  0  0  0  0  0  0  0  0
    4.9385   -6.4613    5.6213 C   0  0  0  0  0  0  0  0  0  0  0  0
    4.1851    0.3122    2.4160 C   0  0  0  0  0  0  0  0  0  0  0  0
    7.6846   -2.2946    4.9565 C   0  0  0  0  0  0  0  0  0  0  0  0
    7.5146   -0.0236    4.1382 C   0  0  0  0  0  0  0  0  0  0  0  0
    8.2734   -1.1053    4.8024 C   0  0  0  0  0  0  0  0  0  0  0  0
    9.6755   -0.9122    5.3337 C   0  0  0  0  0  0  0  0  0  0  0  0
    0.7379   -1.0165    0.2439 C   0  0  0  0  0  0  0  0  0  0  0  0
    0.0998   -2.1084    2.2800 C   0  0  0  0  0  0  0  0  0  0  0  0
    2.2214   -1.1472    0.5867 C   0  0  0  0  0  0  0  0  0  0  0  0
    1.5599   -2.2783    2.6992 C   0  0  0  0  0  0  0  0  0  0  0  0
   -0.0420   -2.1082    0.8250 N   0  0  0  0  0  0  0  0  0  0  0  0
    6.3992   -2.6464    4.5507 N   0  0  0  0  0  0  0  0  0  0  0  0
    2.4044   -1.2770    2.0387 N   0  0  0  0  0  0  0  0  0  0  0  0
    7.9861    1.0987    4.0061 O   0  0  0  0  0  0  0  0  0  0  0  0
   10.1348   -1.4958    6.2993 O   0  0  0  0  0  0  0  0  0  0  0  0
   10.3257   -0.0028    4.5775 O   0  0  0  0  0  0  0  0  0  0  0  0
    4.4751   -7.6713    5.9609 F   0  0  0  0  0  0  0  0  0  0  0  0
    3.5003    1.2542    1.7520 F   0  0  0  0  0  0  0  0  0  0  0  0
    4.2767   -3.1651    6.1068 H   0  0  0  0  0  0  0  0  0  0  0  0
    7.4168   -5.0136    3.8044 H   0  0  0  0  0  0  0  0  0  0  0  0
    3.4267   -5.4008    6.7297 H   0  0  0  0  0  0  0  0  0  0  0  0
    6.5568   -7.2435    4.4348 H   0  0  0  0  0  0  0  0  0  0  0  0
    5.8396    1.6135    2.7887 H   0  0  0  0  0  0  0  0  0  0  0  0
    3.9399   -2.9331    3.3759 H   0  0  0  0  0  0  0  0  0  0  0  0
    8.2053   -3.1124    5.4490 H   0  0  0  0  0  0  0  0  0  0  0  0
    0.3519   -0.0522    0.5976 H   0  0  0  0  0  0  0  0  0  0  0  0
    0.6172   -1.0297   -0.8448 H   0  0  0  0  0  0  0  0  0  0  0  0
   -0.4922   -2.9300    2.6976 H   0  0  0  0  0  0  0  0  0  0  0  0
   -0.3065   -1.1769    2.6939 H   0  0  0  0  0  0  0  0  0  0  0  0
    2.6491   -2.0257    0.0790 H   0  0  0  0  0  0  0  0  0  0  0  0
    2.7551   -0.2618    0.2110 H   0  0  0  0  0  0  0  0  0  0  0  0
    1.6315   -2.1794    3.7924 H   0  0  0  0  0  0  0  0  0  0  0  0
    1.9106   -3.2893    2.4399 H   0  0  0  0  0  0  0  0  0  0  0  0
   -1.0249   -1.9851    0.5831 H   0  0  0  0  0  0  0  0  0  0  0  0
   11.2420    0.1497    4.8929 H   0  0  0  0  0  0  0  0  0  0  0  0
  1  3  1  0  0  0  0
  1  8  2  0  0  0  0
  2  4  2  0  0  0  0
  2  8  1  0  0  0  0
  3 11  2  0  0  0  0
  4 11  1  0  0  0  0
  5  7  2  0  0  0  0
  5 12  1  0  0  0  0
  6  9  2  0  0  0  0
  6 10  1  0  0  0  0
  7  9  1  0  0  0  0
  7 14  1  0  0  0  0
  8 22  1  0  0  0  0
  9 22  1  0  0  0  0
 10 12  2  0  0  0  0
 10 23  1  0  0  0  0
 11 27  1  0  0  0  0
 12 28  1  0  0  0  0
 13 15  2  0  0  0  0
 13 22  1  0  0  0  0
 14 15  1  0  0  0  0
 14 24  2  0  0  0  0
 15 16  1  0  0  0  0
 16 25  2  0  0  0  0
 16 26  1  0  0  0  0
 17 19  1  0  0  0  0
 17 21  1  0  0  0  0
 18 20  1  0  0  0  0
 18 21  1  0  0  0  0
 19 23  1  0  0  0  0
 20 23  1  0  0  0  0
  1 29  1  0  0  0  0
  2 30  1  0  0  0  0
  3 31  1  0  0  0  0
  4 32  1  0  0  0  0
  5 33  1  0  0  0  0
  6 34  1  0  0  0  0
 13 35  1  0  0  0  0
 17 36  1  0  0  0  0
 17 37  1  0  0  0  0
 18 38  1  0  0  0  0
 18 39  1  0  0  0  0
 19 40  1  0  0  0  0
 19 41  1  0  0  0  0
 20 42  1  0  0  0  0
 20 43  1  0  0  0  0
 21 44  1  0  0  0  0
 26 45  1  0  0  0  0
M  END
$$$$
