(1~{S},4~{S})-4-(3,4-dichlorophenyl)-~{N}-methyl-tetralin-1-amine
  -OEChem-02121815213D

 37 39  0     1  0  0  0  0  0999 V2000
    2.1711    0.5491   -1.6563 C   0  0  0  0  0  0  0  0  0  0  0  0
    1.4850   -0.4421   -2.3472 C   0  0  0  0  0  0  0  0  0  0  0  0
    1.6542    1.0506   -0.4618 C   0  0  0  0  0  0  0  0  0  0  0  0
    0.2764   -0.9235   -1.8487 C   0  0  0  0  0  0  0  0  0  0  0  0
    1.2678    2.5740    2.9483 C   0  0  0  0  0  0  0  0  0  0  0  0
    2.2109    2.7099    3.9670 C   0  0  0  0  0  0  0  0  0  0  0  0
    1.5299    0.1735    3.0259 C   0  0  0  0  0  0  0  0  0  0  0  0
    0.9272    1.3057    2.4778 C   0  0  0  0  0  0  0  0  0  0  0  0
    0.4491    0.5572    0.0749 C   0  0  0  0  0  0  0  0  0  0  0  0
   -0.2601   -0.4256   -0.6469 C   0  0  0  0  0  0  0  0  0  0  0  0
    2.8136    1.5776    4.5150 C   0  0  0  0  0  0  0  0  0  0  0  0
    2.4731    0.3094    4.0445 C   0  0  0  0  0  0  0  0  0  0  0  0
   -1.3390    0.4225    1.9202 C   0  0  0  0  0  0  0  0  0  0  0  0
   -2.2779    0.0021    0.7959 C   0  0  0  0  0  0  0  0  0  0  0  0
   -0.1030    1.1589    1.3649 C   0  0  1  0  0  0  0  0  0  0  0  0
   -1.5849   -0.9766   -0.1611 C   0  0  2  0  0  0  0  0  0  0  0  0
   -2.6533   -3.0086    0.5386 C   0  0  0  0  0  0  0  0  0  0  0  0
   -1.3982   -2.2784    0.4882 N   0  0  0  0  0  0  0  0  0  0  0  0
    3.9750    1.8121    5.7741 Cl  0  0  0  0  0  0  0  0  0  0  0  0
    3.1848   -1.1310    4.6831 Cl  0  0  0  0  0  0  0  0  0  0  0  0
    3.1067    0.9372   -2.0481 H   0  0  0  0  0  0  0  0  0  0  0  0
    1.8850   -0.8336   -3.2777 H   0  0  0  0  0  0  0  0  0  0  0  0
    2.2033    1.8379    0.0498 H   0  0  0  0  0  0  0  0  0  0  0  0
   -0.2547   -1.6905   -2.4081 H   0  0  0  0  0  0  0  0  0  0  0  0
    0.8037    3.4618    2.5264 H   0  0  0  0  0  0  0  0  0  0  0  0
    2.4644    3.7061    4.3213 H   0  0  0  0  0  0  0  0  0  0  0  0
    1.2586   -0.8117    2.6533 H   0  0  0  0  0  0  0  0  0  0  0  0
   -1.8711    1.0755    2.6239 H   0  0  0  0  0  0  0  0  0  0  0  0
   -1.0386   -0.4626    2.4972 H   0  0  0  0  0  0  0  0  0  0  0  0
   -3.1850   -0.4492    1.2165 H   0  0  0  0  0  0  0  0  0  0  0  0
   -2.6022    0.8941    0.2434 H   0  0  0  0  0  0  0  0  0  0  0  0
   -0.4289    2.1912    1.1035 H   0  0  0  0  0  0  0  0  0  0  0  0
   -2.2490   -1.1157   -1.0233 H   0  0  0  0  0  0  0  0  0  0  0  0
   -3.3952   -2.4417    1.1071 H   0  0  0  0  0  0  0  0  0  0  0  0
   -2.5069   -3.9790    1.0206 H   0  0  0  0  0  0  0  0  0  0  0  0
   -3.0355   -3.1735   -0.4724 H   0  0  0  0  0  0  0  0  0  0  0  0
   -0.7135   -2.8108   -0.0416 H   0  0  0  0  0  0  0  0  0  0  0  0
  1  2  2  0  0  0  0
  1  3  1  0  0  0  0
  2  4  1  0  0  0  0
  3  9  2  0  0  0  0
  4 10  2  0  0  0  0
  5  6  2  0  0  0  0
  5  8  1  0  0  0  0
  6 11  1  0  0  0  0
  7  8  2  0  0  0  0
  7 12  1  0  0  0  0
  8 15  1  0  0  0  0
  9 10  1  0  0  0  0
  9 15  1  0  0  0  0
 10 16  1  0  0  0  0
 11 12  2  0  0  0  0
 11 19  1  0  0  0  0
 12 20  1  0  0  0  0
 13 14  1  0  0  0  0
 13 15  1  0  0  0  0
 14 16  1  0  0  0  0
 16 18  1  0  0  0  0
 17 18  1  0  0  0  0
  1 21  1  0  0  0  0
  2 22  1  0  0  0  0
  3 23  1  0  0  0  0
  4 24  1  0  0  0  0
  5 25  1  0  0  0  0
  6 26  1  0  0  0  0
  7 27  1  0  0  0  0
 13 28  1  0  0  0  0
 13 29  1  0  0  0  0
 14 30  1  0  0  0  0
 14 31  1  0  0  0  0
 15 32  1  0  0  0  0
 16 33  1  0  0  0  0
 17 34  1  0  0  0  0
 17 35  1  0  0  0  0
 17 36  1  0  0  0  0
 18 37  1  0  0  0  0
M  END
$$$$
