5-amino-1-cyclopropyl-7-[(3~{S},5~{R})-3,5-dimethylpiperazin-1-yl]-6,8-difluoro-
  -OEChem-02121815213D

 50 53  0     1  0  0  0  0  0999 V2000
   -0.2327   -5.3192    1.8146 C   0  0  0  0  0  0  0  0  0  0  0  0
   -1.3335   -4.8292    1.0736 C   0  0  0  0  0  0  0  0  0  0  0  0
   -0.1623   -2.6876    0.9193 C   0  0  0  0  0  0  0  0  0  0  0  0
    0.8759   -4.5105    2.0997 C   0  0  0  0  0  0  0  0  0  0  0  0
   -1.2686   -3.4947    0.6347 C   0  0  0  0  0  0  0  0  0  0  0  0
    0.9070   -3.1944    1.6498 C   0  0  0  0  0  0  0  0  0  0  0  0
   -2.4114   -6.9807    1.2807 C   0  0  0  0  0  0  0  0  0  0  0  0
   -0.2379   -6.7221    2.3085 C   0  0  0  0  0  0  0  0  0  0  0  0
   -1.4280   -7.5442    1.9872 C   0  0  0  0  0  0  0  0  0  0  0  0
   -1.5862   -8.9396    2.4019 C   0  0  0  0  0  0  0  0  0  0  0  0
   -4.0993   -5.9946   -1.1626 C   0  0  0  0  0  0  0  0  0  0  0  0
   -3.4864   -4.6355   -1.3286 C   0  0  0  0  0  0  0  0  0  0  0  0
   -0.0257   -0.2671    1.4378 C   0  0  0  0  0  0  0  0  0  0  0  0
    0.4409   -1.1001   -0.8590 C   0  0  0  0  0  0  0  0  0  0  0  0
   -3.6166   -5.2370    0.0427 C   0  0  0  0  0  0  0  0  0  0  0  0
   -0.5248    1.0464    0.8174 C   0  0  1  0  0  0  0  0  0  0  0  0
   -0.0745    0.2384   -1.4078 C   0  0  2  0  0  0  0  0  0  0  0  0
   -0.2952    2.2148    1.7743 C   0  0  0  0  0  0  0  0  0  0  0  0
    0.6164    0.5822   -2.7261 C   0  0  0  0  0  0  0  0  0  0  0  0
    0.1566    1.3270   -0.4513 N   0  0  0  0  0  0  0  0  0  0  0  0
   -2.4321   -5.6809    0.8089 N   0  0  0  0  0  0  0  0  0  0  0  0
   -0.1328   -1.3632    0.4681 N   0  0  0  0  0  0  0  0  0  0  0  0
    1.9936   -4.9650    2.8363 N   0  0  0  0  0  0  0  0  0  0  0  0
    0.6799   -7.2135    2.9532 O   0  0  0  0  0  0  0  0  0  0  0  0
   -2.2180   -9.7767    1.7825 O   0  0  0  0  0  0  0  0  0  0  0  0
   -0.9295   -9.1446    3.5630 O   0  0  0  0  0  0  0  0  0  0  0  0
   -2.2743   -2.9547   -0.0711 F   0  0  0  0  0  0  0  0  0  0  0  0
    1.9648   -2.4132    1.9184 F   0  0  0  0  0  0  0  0  0  0  0  0
   -3.3018   -7.5478    1.0257 H   0  0  0  0  0  0  0  0  0  0  0  0
   -5.1668   -6.0877   -1.3202 H   0  0  0  0  0  0  0  0  0  0  0  0
   -3.5210   -6.8510   -1.4872 H   0  0  0  0  0  0  0  0  0  0  0  0
   -2.4958   -4.5788   -1.7628 H   0  0  0  0  0  0  0  0  0  0  0  0
   -4.1433   -3.8178   -1.5983 H   0  0  0  0  0  0  0  0  0  0  0  0
    1.0215   -0.1657    1.7645 H   0  0  0  0  0  0  0  0  0  0  0  0
   -0.6235   -0.4946    2.3335 H   0  0  0  0  0  0  0  0  0  0  0  0
    0.1671   -1.9069   -1.5557 H   0  0  0  0  0  0  0  0  0  0  0  0
    1.5403   -1.0916   -0.7884 H   0  0  0  0  0  0  0  0  0  0  0  0
   -4.3768   -4.8152    0.6908 H   0  0  0  0  0  0  0  0  0  0  0  0
   -1.6048    0.9683    0.6315 H   0  0  0  0  0  0  0  0  0  0  0  0
   -1.1526    0.1574   -1.6012 H   0  0  0  0  0  0  0  0  0  0  0  0
    0.7687    2.3197    1.9797 H   0  0  0  0  0  0  0  0  0  0  0  0
   -0.8231    2.0349    2.7092 H   0  0  0  0  0  0  0  0  0  0  0  0
   -0.6650    3.1359    1.3269 H   0  0  0  0  0  0  0  0  0  0  0  0
    1.6899    0.6698   -2.5679 H   0  0  0  0  0  0  0  0  0  0  0  0
    0.2336    1.5273   -3.1075 H   0  0  0  0  0  0  0  0  0  0  0  0
    0.4261   -0.2014   -3.4575 H   0  0  0  0  0  0  0  0  0  0  0  0
   -0.1886    2.2045   -0.8398 H   0  0  0  0  0  0  0  0  0  0  0  0
    1.9821   -5.8893    3.2135 H   0  0  0  0  0  0  0  0  0  0  0  0
    2.7297   -4.3234    3.0448 H   0  0  0  0  0  0  0  0  0  0  0  0
   -1.0130  -10.0714    3.8736 H   0  0  0  0  0  0  0  0  0  0  0  0
  1  2  2  0  0  0  0
  1  4  1  0  0  0  0
  1  8  1  0  0  0  0
  2  5  1  0  0  0  0
  2 21  1  0  0  0  0
  3  5  2  0  0  0  0
  3  6  1  0  0  0  0
  3 22  1  0  0  0  0
  4  6  2  0  0  0  0
  4 23  1  0  0  0  0
  5 27  1  0  0  0  0
  6 28  1  0  0  0  0
  7  9  2  0  0  0  0
  7 21  1  0  0  0  0
  8  9  1  0  0  0  0
  8 24  2  0  0  0  0
  9 10  1  0  0  0  0
 10 25  2  0  0  0  0
 10 26  1  0  0  0  0
 11 12  1  0  0  0  0
 11 15  1  0  0  0  0
 12 15  1  0  0  0  0
 13 16  1  0  0  0  0
 13 22  1  0  0  0  0
 14 17  1  0  0  0  0
 14 22  1  0  0  0  0
 15 21  1  0  0  0  0
 16 18  1  0  0  0  0
 16 20  1  0  0  0  0
 17 19  1  0  0  0  0
 17 20  1  0  0  0  0
  7 29  1  0  0  0  0
 11 30  1  0  0  0  0
 11 31  1  0  0  0  0
 12 32  1  0  0  0  0
 12 33  1  0  0  0  0
 13 34  1  0  0  0  0
 13 35  1  0  0  0  0
 14 36  1  0  0  0  0
 14 37  1  0  0  0  0
 15 38  1  0  0  0  0
 16 39  1  0  0  0  0
 17 40  1  0  0  0  0
 18 41  1  0  0  0  0
 18 42  1  0  0  0  0
 18 43  1  0  0  0  0
 19 44  1  0  0  0  0
 19 45  1  0  0  0  0
 19 46  1  0  0  0  0
 20 47  1  0  0  0  0
 23 48  1  0  0  0  0
 23 49  1  0  0  0  0
 26 50  1  0  0  0  0
M  END
$$$$
