4-amino-~{N}-(4,6-dimethylpyrimidin-2-yl)benzenesulfonamide
  -OEChem-02121815213D

 33 34  0     0  0  0  0  0  0999 V2000
    2.7847   -1.6580    1.6781 C   0  0  0  0  0  0  0  0  0  0  0  0
    1.7271   -0.8126   -0.3229 C   0  0  0  0  0  0  0  0  0  0  0  0
    1.7519   -1.1249    2.4493 C   0  0  0  0  0  0  0  0  0  0  0  0
    0.6942   -0.2795    0.4483 C   0  0  0  0  0  0  0  0  0  0  0  0
    1.2483    4.1954    0.0409 C   0  0  0  0  0  0  0  0  0  0  0  0
    2.7723   -1.5019    0.2920 C   0  0  0  0  0  0  0  0  0  0  0  0
    0.7067   -0.4356    1.8344 C   0  0  0  0  0  0  0  0  0  0  0  0
    2.1208    3.7095    0.9933 C   0  0  0  0  0  0  0  0  0  0  0  0
   -0.0732    3.8317    0.2009 C   0  0  0  0  0  0  0  0  0  0  0  0
    0.4279    2.6439    2.0730 C   0  0  0  0  0  0  0  0  0  0  0  0
    3.5703    4.0503    0.9036 C   0  0  0  0  0  0  0  0  0  0  0  0
   -1.0902    4.3081   -0.7807 C   0  0  0  0  0  0  0  0  0  0  0  0
    1.7434    2.9283    2.0266 N   0  0  0  0  0  0  0  0  0  0  0  0
   -0.5200    3.0542    1.2089 N   0  0  0  0  0  0  0  0  0  0  0  0
    3.8164   -2.0408   -0.4882 N   0  0  0  0  0  0  0  0  0  0  0  0
   -0.0119    1.8156    3.1634 N   0  0  0  0  0  0  0  0  0  0  0  0
   -0.6486   -0.5240    4.0438 O   0  0  0  0  0  0  0  0  0  0  0  0
   -1.7839    0.3264    1.9732 O   0  0  0  0  0  0  0  0  0  0  0  0
   -0.5862    0.2327    2.7989 S   0  0  0  0  0  0  0  0  0  0  0  0
    3.5944   -2.1930    2.1677 H   0  0  0  0  0  0  0  0  0  0  0  0
    1.7071   -0.6861   -1.4024 H   0  0  0  0  0  0  0  0  0  0  0  0
    1.7720   -1.2524    3.5282 H   0  0  0  0  0  0  0  0  0  0  0  0
   -0.1150    0.2558   -0.0414 H   0  0  0  0  0  0  0  0  0  0  0  0
    1.5790    4.8224   -0.7780 H   0  0  0  0  0  0  0  0  0  0  0  0
    3.7798    4.9747    1.4554 H   0  0  0  0  0  0  0  0  0  0  0  0
    4.1942    3.2481    1.3184 H   0  0  0  0  0  0  0  0  0  0  0  0
    3.8828    4.1889   -0.1395 H   0  0  0  0  0  0  0  0  0  0  0  0
   -1.1894    3.5921   -1.6056 H   0  0  0  0  0  0  0  0  0  0  0  0
   -2.0728    4.4323   -0.3075 H   0  0  0  0  0  0  0  0  0  0  0  0
   -0.8133    5.2847   -1.1987 H   0  0  0  0  0  0  0  0  0  0  0  0
    4.5836   -2.4916   -0.0321 H   0  0  0  0  0  0  0  0  0  0  0  0
    3.8198   -1.8812   -1.4754 H   0  0  0  0  0  0  0  0  0  0  0  0
    0.5428    1.9072    4.0247 H   0  0  0  0  0  0  0  0  0  0  0  0
  1  3  2  0  0  0  0
  1  6  1  0  0  0  0
  2  4  1  0  0  0  0
  2  6  2  0  0  0  0
  3  7  1  0  0  0  0
  4  7  2  0  0  0  0
  5  8  1  0  0  0  0
  5  9  2  0  0  0  0
  6 15  1  0  0  0  0
  7 19  1  0  0  0  0
  8 11  1  0  0  0  0
  8 13  2  0  0  0  0
  9 12  1  0  0  0  0
  9 14  1  0  0  0  0
 10 13  1  0  0  0  0
 10 14  2  0  0  0  0
 10 16  1  0  0  0  0
 16 19  1  0  0  0  0
 17 19  2  0  0  0  0
 18 19  2  0  0  0  0
  1 20  1  0  0  0  0
  2 21  1  0  0  0  0
  3 22  1  0  0  0  0
  4 23  1  0  0  0  0
  5 24  1  0  0  0  0
 11 25  1  0  0  0  0
 11 26  1  0  0  0  0
 11 27  1  0  0  0  0
 12 28  1  0  0  0  0
 12 29  1  0  0  0  0
 12 30  1  0  0  0  0
 15 31  1  0  0  0  0
 15 32  1  0  0  0  0
 16 33  1  0  0  0  0
M  END
$$$$
