~{N}-(4-aminophenyl)sulfonylacetamide
  -OEChem-02121815213D

 24 24  0     0  0  0  0  0  0999 V2000
    1.8851   -1.0363   -0.1124 C   0  0  0  0  0  0  0  0  0  0  0  0
    2.8783   -1.6520    2.0022 C   0  0  0  0  0  0  0  0  0  0  0  0
    0.8066   -0.4630    0.5610 C   0  0  0  0  0  0  0  0  0  0  0  0
    1.7997   -1.0786    2.6757 C   0  0  0  0  0  0  0  0  0  0  0  0
    2.9210   -1.6309    0.6081 C   0  0  0  0  0  0  0  0  0  0  0  0
    0.7638   -0.4841    1.9551 C   0  0  0  0  0  0  0  0  0  0  0  0
   -2.5653   -1.5131    1.8896 C   0  0  0  0  0  0  0  0  0  0  0  0
   -3.4393   -2.6656    2.2941 C   0  0  0  0  0  0  0  0  0  0  0  0
    4.0119   -2.2107   -0.0724 N   0  0  0  0  0  0  0  0  0  0  0  0
   -1.6652   -1.0941    2.9201 N   0  0  0  0  0  0  0  0  0  0  0  0
   -2.6299   -0.9929    0.7815 O   0  0  0  0  0  0  0  0  0  0  0  0
   -0.1580    0.6134    4.1384 O   0  0  0  0  0  0  0  0  0  0  0  0
   -1.1743    1.2344    1.9202 O   0  0  0  0  0  0  0  0  0  0  0  0
   -0.5862    0.2327    2.7989 S   0  0  0  0  0  0  0  0  0  0  0  0
    1.9081   -1.0145   -1.1990 H   0  0  0  0  0  0  0  0  0  0  0  0
    3.6808   -2.1118    2.5735 H   0  0  0  0  0  0  0  0  0  0  0  0
    0.0051   -0.0027   -0.0106 H   0  0  0  0  0  0  0  0  0  0  0  0
    1.7768   -1.1011    3.7620 H   0  0  0  0  0  0  0  0  0  0  0  0
   -4.3622   -2.2893    2.7438 H   0  0  0  0  0  0  0  0  0  0  0  0
   -3.6919   -3.2633    1.4141 H   0  0  0  0  0  0  0  0  0  0  0  0
   -2.9086   -3.2968    3.0118 H   0  0  0  0  0  0  0  0  0  0  0  0
    4.0082   -2.2310   -1.0721 H   0  0  0  0  0  0  0  0  0  0  0  0
    4.7240   -2.6749    0.4542 H   0  0  0  0  0  0  0  0  0  0  0  0
   -1.6875   -1.5948    3.8181 H   0  0  0  0  0  0  0  0  0  0  0  0
  1  3  2  0  0  0  0
  1  5  1  0  0  0  0
  2  4  1  0  0  0  0
  2  5  2  0  0  0  0
  3  6  1  0  0  0  0
  4  6  2  0  0  0  0
  5  9  1  0  0  0  0
  6 14  1  0  0  0  0
  7  8  1  0  0  0  0
  7 10  1  0  0  0  0
  7 11  2  0  0  0  0
 10 14  1  0  0  0  0
 12 14  2  0  0  0  0
 13 14  2  0  0  0  0
  1 15  1  0  0  0  0
  2 16  1  0  0  0  0
  3 17  1  0  0  0  0
  4 18  1  0  0  0  0
  8 19  1  0  0  0  0
  8 20  1  0  0  0  0
  8 21  1  0  0  0  0
  9 22  1  0  0  0  0
  9 23  1  0  0  0  0
 10 24  1  0  0  0  0
M  END
$$$$
