2-[(3~{Z})-6-fluoro-2-methyl-3-[(4-methylsulfinylphenyl)methylene]inden-1-yl]ace
  -OEChem-02121815213D

 42 44  0     1  0  0  0  0  0999 V2000
   -0.7597   -1.9591    0.4697 C   0  0  0  0  0  0  0  0  0  0  0  0
   -2.1413   -4.1067   -1.7572 C   0  0  0  0  0  0  0  0  0  0  0  0
    0.0660   -4.8856   -1.1587 C   0  0  0  0  0  0  0  0  0  0  0  0
   -0.4205   -0.6387    0.7722 C   0  0  0  0  0  0  0  0  0  0  0  0
   -1.6822   -3.7873   -3.0350 C   0  0  0  0  0  0  0  0  0  0  0  0
    0.5251   -4.5664   -2.4366 C   0  0  0  0  0  0  0  0  0  0  0  0
   -1.1557   -0.9238    3.0769 C   0  0  0  0  0  0  0  0  0  0  0  0
   -1.2934   -2.7426    1.4800 C   0  0  0  0  0  0  0  0  0  0  0  0
   -1.4923   -2.2356    2.7754 C   0  0  0  0  0  0  0  0  0  0  0  0
   -1.2672   -4.6558   -0.8190 C   0  0  0  0  0  0  0  0  0  0  0  0
   -0.6167   -0.1253    2.0642 C   0  0  0  0  0  0  0  0  0  0  0  0
   -0.3490   -4.0172   -3.3747 C   0  0  0  0  0  0  0  0  0  0  0  0
   -2.0682   -3.2841    3.6368 C   0  0  0  0  0  0  0  0  0  0  0  0
   -1.7523   -4.1319    1.5274 C   0  0  0  0  0  0  0  0  0  0  0  0
   -2.2170   -4.3990    2.8891 C   0  0  0  0  0  0  0  0  0  0  0  0
   -1.7372   -4.9820    0.4938 C   0  0  0  0  0  0  0  0  0  0  0  0
   -1.2435   -3.3301    5.9991 C   0  0  0  0  0  0  0  0  0  0  0  0
   -2.7569   -5.7250    3.3037 C   0  0  0  0  0  0  0  0  0  0  0  0
    0.7479   -1.9014   -4.6677 C   0  0  0  0  0  0  0  0  0  0  0  0
   -2.3862   -3.0362    5.0672 C   0  0  0  0  0  0  0  0  0  0  0  0
   -0.1402   -3.7388    5.6688 O   0  0  0  0  0  0  0  0  0  0  0  0
   -0.9702   -3.5325   -5.9052 O   0  0  0  0  0  0  0  0  0  0  0  0
   -1.6040   -3.0789    7.2832 O   0  0  0  0  0  0  0  0  0  0  0  0
   -0.2827    1.1455    2.3280 F   0  0  0  0  0  0  0  0  0  0  0  0
    0.2406   -3.6061   -5.0169 S   0  0  2  0  0  0  0  0  0  0  0  0
   -0.6039   -2.3453   -0.5316 H   0  0  0  0  0  0  0  0  0  0  0  0
   -3.1828   -3.9201   -1.5063 H   0  0  0  0  0  0  0  0  0  0  0  0
    0.7594   -5.3122   -0.4380 H   0  0  0  0  0  0  0  0  0  0  0  0
    0.0001   -0.0000    0.0001 H   0  0  0  0  0  0  0  0  0  0  0  0
   -2.3749   -3.3586   -3.7544 H   0  0  0  0  0  0  0  0  0  0  0  0
    1.5672   -4.7492   -2.6860 H   0  0  0  0  0  0  0  0  0  0  0  0
   -1.3014   -0.5137    4.0707 H   0  0  0  0  0  0  0  0  0  0  0  0
   -2.1355   -5.9808    0.6609 H   0  0  0  0  0  0  0  0  0  0  0  0
   -3.8356   -5.7541    3.1445 H   0  0  0  0  0  0  0  0  0  0  0  0
   -2.5467   -5.8994    4.3601 H   0  0  0  0  0  0  0  0  0  0  0  0
   -2.2878   -6.5176    2.7186 H   0  0  0  0  0  0  0  0  0  0  0  0
    1.1526   -1.4526   -5.5775 H   0  0  0  0  0  0  0  0  0  0  0  0
    1.5115   -1.9105   -3.8871 H   0  0  0  0  0  0  0  0  0  0  0  0
   -0.1216   -1.3341   -4.3291 H   0  0  0  0  0  0  0  0  0  0  0  0
   -3.2331   -3.6745    5.3413 H   0  0  0  0  0  0  0  0  0  0  0  0
   -2.6633   -1.9820    5.1752 H   0  0  0  0  0  0  0  0  0  0  0  0
   -0.8739   -3.2646    7.9114 H   0  0  0  0  0  0  0  0  0  0  0  0
  1  4  2  0  0  0  0
  1  8  1  0  0  0  0
  2  5  2  0  0  0  0
  2 10  1  0  0  0  0
  3  6  1  0  0  0  0
  3 10  2  0  0  0  0
  4 11  1  0  0  0  0
  5 12  1  0  0  0  0
  6 12  2  0  0  0  0
  7  9  1  0  0  0  0
  7 11  2  0  0  0  0
  8  9  2  0  0  0  0
  8 14  1  0  0  0  0
  9 13  1  0  0  0  0
 10 16  1  0  0  0  0
 11 24  1  0  0  0  0
 12 25  1  0  0  0  0
 13 15  2  0  0  0  0
 13 20  1  0  0  0  0
 14 15  1  0  0  0  0
 14 16  2  0  0  0  0
 15 18  1  0  0  0  0
 17 20  1  0  0  0  0
 17 21  2  0  0  0  0
 17 23  1  0  0  0  0
 19 25  1  0  0  0  0
 22 25  2  0  0  0  0
  1 26  1  0  0  0  0
  2 27  1  0  0  0  0
  3 28  1  0  0  0  0
  4 29  1  0  0  0  0
  5 30  1  0  0  0  0
  6 31  1  0  0  0  0
  7 32  1  0  0  0  0
 16 33  1  0  0  0  0
 18 34  1  0  0  0  0
 18 35  1  0  0  0  0
 18 36  1  0  0  0  0
 19 37  1  0  0  0  0
 19 38  1  0  0  0  0
 19 39  1  0  0  0  0
 20 40  1  0  0  0  0
 20 41  1  0  0  0  0
 23 42  1  0  0  0  0
M  END
$$$$
