(4~{S},4~{a}~{S},5~{a}~{S},6~{S},12~{a}~{S})-4-(dimethylamino)-3,6,10,12,12~{a}-
  -OEChem-02121815213D

 56 59  0     1  0  0  0  0  0999 V2000
   -0.0550   -0.4819    0.9718 C   0  0  0  0  0  0  0  0  0  0  0  0
   -0.8680   -1.6044    1.1476 C   0  0  0  0  0  0  0  0  0  0  0  0
    0.6856    0.0129    2.0359 C   0  0  0  0  0  0  0  0  0  0  0  0
   -0.1978   -1.7488    3.4544 C   0  0  0  0  0  0  0  0  0  0  0  0
   -0.9711   -2.2531    2.3933 C   0  0  0  0  0  0  0  0  0  0  0  0
    0.6199   -0.6200    3.2734 C   0  0  0  0  0  0  0  0  0  0  0  0
   -0.1924   -2.3967    4.7877 C   0  0  0  0  0  0  0  0  0  0  0  0
   -2.4683   -7.8764    5.7670 C   0  0  0  0  0  0  0  0  0  0  0  0
   -1.1771   -3.4970    5.0277 C   0  0  0  0  0  0  0  0  0  0  0  0
   -3.7900   -7.6338    5.7937 C   0  0  0  0  0  0  0  0  0  0  0  0
   -1.0132   -4.3231    6.0821 C   0  0  0  0  0  0  0  0  0  0  0  0
   -1.4918   -6.7786    6.0483 C   0  0  0  0  0  0  0  0  0  0  0  0
   -2.0021   -9.2408    5.4695 C   0  0  0  0  0  0  0  0  0  0  0  0
   -3.2268   -4.8193    4.3177 C   0  0  0  0  0  0  0  0  0  0  0  0
   -2.3416   -3.5774    4.0629 C   0  0  2  0  0  0  0  0  0  0  0  0
   -4.3971   -6.2744    6.0496 C   0  0  2  0  0  0  0  0  0  0  0  0
   -3.3958   -5.1152    5.8189 C   0  0  1  0  0  0  0  0  0  0  0  0
   -1.8444   -3.4907    2.5857 C   0  0  1  0  0  0  0  0  0  0  0  0
   -2.0206   -5.3955    6.4563 C   0  0  2  0  0  0  0  0  0  0  0  0
   -3.0392   -3.5408    1.6099 C   0  0  0  0  0  0  0  0  0  0  0  0
   -5.5919   -7.4977    7.7373 C   0  0  0  0  0  0  0  0  0  0  0  0
   -5.8763   -5.1193    7.5495 C   0  0  0  0  0  0  0  0  0  0  0  0
   -1.2103   -9.3091    4.3506 N   0  0  0  0  0  0  0  0  0  0  0  0
   -4.9405   -6.2317    7.4145 N   0  0  0  0  0  0  0  0  0  0  0  0
    0.5781   -2.0284    5.6669 O   0  0  0  0  0  0  0  0  0  0  0  0
   -0.2853   -7.0237    5.9964 O   0  0  0  0  0  0  0  0  0  0  0  0
   -2.3136  -10.1914    6.1771 O   0  0  0  0  0  0  0  0  0  0  0  0
    1.3763   -0.0785    4.2724 O   0  0  0  0  0  0  0  0  0  0  0  0
   -4.7083   -8.6426    5.5457 O   0  0  0  0  0  0  0  0  0  0  0  0
    0.0696   -4.2833    6.9452 O   0  0  0  0  0  0  0  0  0  0  0  0
   -0.9966   -4.6098    2.2910 O   0  0  0  0  0  0  0  0  0  0  0  0
   -2.1353   -5.4180    7.8780 O   0  0  0  0  0  0  0  0  0  0  0  0
   -0.0006    0.0005    0.0002 H   0  0  0  0  0  0  0  0  0  0  0  0
   -1.4135   -1.9587    0.2785 H   0  0  0  0  0  0  0  0  0  0  0  0
    1.3151    0.8869    1.8934 H   0  0  0  0  0  0  0  0  0  0  0  0
   -4.2188   -4.6402    3.8845 H   0  0  0  0  0  0  0  0  0  0  0  0
   -2.8210   -5.6997    3.8081 H   0  0  0  0  0  0  0  0  0  0  0  0
   -2.9691   -2.6948    4.2643 H   0  0  0  0  0  0  0  0  0  0  0  0
   -5.2417   -6.1277    5.3638 H   0  0  0  0  0  0  0  0  0  0  0  0
   -3.8238   -4.2117    6.2809 H   0  0  0  0  0  0  0  0  0  0  0  0
   -3.6132   -4.4396    1.8007 H   0  0  0  0  0  0  0  0  0  0  0  0
   -2.6644   -3.5510    0.5934 H   0  0  0  0  0  0  0  0  0  0  0  0
   -3.6594   -2.6663    1.7662 H   0  0  0  0  0  0  0  0  0  0  0  0
   -5.9955   -7.4644    8.7526 H   0  0  0  0  0  0  0  0  0  0  0  0
   -4.8742   -8.3198    7.6707 H   0  0  0  0  0  0  0  0  0  0  0  0
   -6.4110   -7.6900    7.0391 H   0  0  0  0  0  0  0  0  0  0  0  0
   -6.2796   -5.0888    8.5651 H   0  0  0  0  0  0  0  0  0  0  0  0
   -6.7046   -5.2346    6.8452 H   0  0  0  0  0  0  0  0  0  0  0  0
   -5.3701   -4.1724    7.3433 H   0  0  0  0  0  0  0  0  0  0  0  0
   -1.0173   -8.4537    3.8400 H   0  0  0  0  0  0  0  0  0  0  0  0
   -0.8091  -10.1779    4.0114 H   0  0  0  0  0  0  0  0  0  0  0  0
    1.2625   -0.5879    5.0890 H   0  0  0  0  0  0  0  0  0  0  0  0
   -5.5984   -8.2873    5.6072 H   0  0  0  0  0  0  0  0  0  0  0  0
    0.6712   -3.5850    6.6741 H   0  0  0  0  0  0  0  0  0  0  0  0
   -0.7077   -4.4920    1.3756 H   0  0  0  0  0  0  0  0  0  0  0  0
   -2.4380   -4.5362    8.1434 H   0  0  0  0  0  0  0  0  0  0  0  0
  1  2  2  0  0  0  0
  1  3  1  0  0  0  0
  2  5  1  0  0  0  0
  3  6  2  0  0  0  0
  4  5  2  0  0  0  0
  4  6  1  0  0  0  0
  4  7  1  0  0  0  0
  5 18  1  0  0  0  0
  6 28  1  0  0  0  0
  7  9  1  0  0  0  0
  7 25  2  0  0  0  0
  8 10  2  0  0  0  0
  8 12  1  0  0  0  0
  8 13  1  0  0  0  0
  9 11  2  0  0  0  0
  9 15  1  0  0  0  0
 10 16  1  0  0  0  0
 10 29  1  0  0  0  0
 11 19  1  0  0  0  0
 11 30  1  0  0  0  0
 12 19  1  0  0  0  0
 12 26  2  0  0  0  0
 13 23  1  0  0  0  0
 13 27  2  0  0  0  0
 14 15  1  0  0  0  0
 14 17  1  0  0  0  0
 15 18  1  0  0  0  0
 16 17  1  0  0  0  0
 16 24  1  0  0  0  0
 17 19  1  0  0  0  0
 18 20  1  0  0  0  0
 18 31  1  0  0  0  0
 19 32  1  0  0  0  0
 21 24  1  0  0  0  0
 22 24  1  0  0  0  0
  1 33  1  0  0  0  0
  2 34  1  0  0  0  0
  3 35  1  0  0  0  0
 14 36  1  0  0  0  0
 14 37  1  0  0  0  0
 15 38  1  0  0  0  0
 16 39  1  0  0  0  0
 17 40  1  0  0  0  0
 20 41  1  0  0  0  0
 20 42  1  0  0  0  0
 20 43  1  0  0  0  0
 21 44  1  0  0  0  0
 21 45  1  0  0  0  0
 21 46  1  0  0  0  0
 22 47  1  0  0  0  0
 22 48  1  0  0  0  0
 22 49  1  0  0  0  0
 23 50  1  0  0  0  0
 23 51  1  0  0  0  0
 28 52  1  0  0  0  0
 29 53  1  0  0  0  0
 30 54  1  0  0  0  0
 31 55  1  0  0  0  0
 32 56  1  0  0  0  0
M  END
$$$$
