2-isopropyl-5-methyl-phenol
  -OEChem-02121815213D

 25 25  0     0  0  0  0  0  0999 V2000
    1.8851   -1.0363   -0.1124 C   0  0  0  0  0  0  0  0  0  0  0  0
    0.8066   -0.4630    0.5610 C   0  0  0  0  0  0  0  0  0  0  0  0
    2.8783   -1.6520    2.0022 C   0  0  0  0  0  0  0  0  0  0  0  0
    2.9210   -1.6309    0.6081 C   0  0  0  0  0  0  0  0  0  0  0  0
    0.7638   -0.4841    1.9551 C   0  0  0  0  0  0  0  0  0  0  0  0
    1.7997   -1.0786    2.6757 C   0  0  0  0  0  0  0  0  0  0  0  0
    4.0737   -2.2444   -0.1125 C   0  0  0  0  0  0  0  0  0  0  0  0
   -1.7295   -0.5577    2.3175 C   0  0  0  0  0  0  0  0  0  0  0  0
   -0.5100    1.6474    2.3887 C   0  0  0  0  0  0  0  0  0  0  0  0
   -0.3977    0.1356    2.6590 C   0  0  0  0  0  0  0  0  0  0  0  0
    1.7731   -1.1089    4.0375 O   0  0  0  0  0  0  0  0  0  0  0  0
    1.9108   -1.0163   -1.1988 H   0  0  0  0  0  0  0  0  0  0  0  0
    0.0038   -0.0034   -0.0095 H   0  0  0  0  0  0  0  0  0  0  0  0
    3.6844   -2.1153    2.5658 H   0  0  0  0  0  0  0  0  0  0  0  0
    4.8656   -1.5016   -0.2685 H   0  0  0  0  0  0  0  0  0  0  0  0
    4.4935   -3.0871    0.4519 H   0  0  0  0  0  0  0  0  0  0  0  0
    3.7681   -2.6381   -1.0906 H   0  0  0  0  0  0  0  0  0  0  0  0
   -1.9474   -0.5074    1.2451 H   0  0  0  0  0  0  0  0  0  0  0  0
   -2.5686   -0.0956    2.8490 H   0  0  0  0  0  0  0  0  0  0  0  0
   -1.6944   -1.6154    2.6016 H   0  0  0  0  0  0  0  0  0  0  0  0
   -0.6386    1.8363    1.3170 H   0  0  0  0  0  0  0  0  0  0  0  0
    0.3892    2.1800    2.7172 H   0  0  0  0  0  0  0  0  0  0  0  0
   -1.3663    2.0882    2.9107 H   0  0  0  0  0  0  0  0  0  0  0  0
   -0.2711    0.0305    3.7529 H   0  0  0  0  0  0  0  0  0  0  0  0
    2.5634   -1.5566    4.3781 H   0  0  0  0  0  0  0  0  0  0  0  0
  1  2  2  0  0  0  0
  1  4  1  0  0  0  0
  2  5  1  0  0  0  0
  3  4  2  0  0  0  0
  3  6  1  0  0  0  0
  4  7  1  0  0  0  0
  5  6  2  0  0  0  0
  5 10  1  0  0  0  0
  6 11  1  0  0  0  0
  8 10  1  0  0  0  0
  9 10  1  0  0  0  0
  1 12  1  0  0  0  0
  2 13  1  0  0  0  0
  3 14  1  0  0  0  0
  7 15  1  0  0  0  0
  7 16  1  0  0  0  0
  7 17  1  0  0  0  0
  8 18  1  0  0  0  0
  8 19  1  0  0  0  0
  8 20  1  0  0  0  0
  9 21  1  0  0  0  0
  9 22  1  0  0  0  0
  9 23  1  0  0  0  0
 10 24  1  0  0  0  0
 11 25  1  0  0  0  0
M  END
$$$$
