5-[(3,4,5-trimethoxyphenyl)methyl]pyrimidine-2,4-diamine
  -OEChem-02121815213D

 39 40  0     0  0  0  0  0  0999 V2000
    1.8851   -1.0363   -0.1124 C   0  0  0  0  0  0  0  0  0  0  0  0
    0.7638   -0.4841    1.9551 C   0  0  0  0  0  0  0  0  0  0  0  0
   -2.5447   -0.6016    0.6319 C   0  0  0  0  0  0  0  0  0  0  0  0
    0.8066   -0.4630    0.5610 C   0  0  0  0  0  0  0  0  0  0  0  0
   -1.5461   -0.6841   -0.3170 C   0  0  0  0  0  0  0  0  0  0  0  0
    2.9210   -1.6309    0.6081 C   0  0  0  0  0  0  0  0  0  0  0  0
    1.7997   -1.0786    2.6757 C   0  0  0  0  0  0  0  0  0  0  0  0
    2.8783   -1.6520    2.0022 C   0  0  0  0  0  0  0  0  0  0  0  0
   -1.7676   -1.5831   -1.3402 C   0  0  0  0  0  0  0  0  0  0  0  0
   -3.7748   -2.1755   -0.4529 C   0  0  0  0  0  0  0  0  0  0  0  0
    3.9348   -2.1229   -1.4861 C   0  0  0  0  0  0  0  0  0  0  0  0
    0.6087   -0.4847    4.6466 C   0  0  0  0  0  0  0  0  0  0  0  0
    3.7579   -3.6209    3.0051 C   0  0  0  0  0  0  0  0  0  0  0  0
   -0.3009    0.1730   -0.2092 C   0  0  0  0  0  0  0  0  0  0  0  0
   -3.6764   -1.3352    0.5948 N   0  0  0  0  0  0  0  0  0  0  0  0
   -2.8746   -2.3479   -1.4396 N   0  0  0  0  0  0  0  0  0  0  0  0
   -0.7771   -1.7118   -2.3449 N   0  0  0  0  0  0  0  0  0  0  0  0
   -4.9468   -2.9599   -0.5245 N   0  0  0  0  0  0  0  0  0  0  0  0
    3.9687   -2.1873   -0.0618 O   0  0  0  0  0  0  0  0  0  0  0  0
    1.7458   -1.0923    4.0369 O   0  0  0  0  0  0  0  0  0  0  0  0
    3.8908   -2.2331    2.7065 O   0  0  0  0  0  0  0  0  0  0  0  0
    1.9208   -1.0210   -1.1991 H   0  0  0  0  0  0  0  0  0  0  0  0
   -0.0759   -0.0379    2.4825 H   0  0  0  0  0  0  0  0  0  0  0  0
   -2.4674    0.0753    1.4770 H   0  0  0  0  0  0  0  0  0  0  0  0
    4.8277   -2.6024   -1.8946 H   0  0  0  0  0  0  0  0  0  0  0  0
    3.8917   -1.0780   -1.8036 H   0  0  0  0  0  0  0  0  0  0  0  0
    3.0460   -2.6476   -1.8446 H   0  0  0  0  0  0  0  0  0  0  0  0
    0.6908   -0.5646    5.7333 H   0  0  0  0  0  0  0  0  0  0  0  0
   -0.3007   -0.9830    4.3015 H   0  0  0  0  0  0  0  0  0  0  0  0
    0.5741    0.5698    4.3627 H   0  0  0  0  0  0  0  0  0  0  0  0
    4.6310   -3.9583    3.5687 H   0  0  0  0  0  0  0  0  0  0  0  0
    3.6699   -4.1878    2.0748 H   0  0  0  0  0  0  0  0  0  0  0  0
    2.8584   -3.7704    3.6070 H   0  0  0  0  0  0  0  0  0  0  0  0
   -0.5744    1.1450    0.2377 H   0  0  0  0  0  0  0  0  0  0  0  0
    0.0379    0.4392   -1.2260 H   0  0  0  0  0  0  0  0  0  0  0  0
    0.0239   -1.1194   -2.3102 H   0  0  0  0  0  0  0  0  0  0  0  0
   -0.9478   -2.3234   -3.1135 H   0  0  0  0  0  0  0  0  0  0  0  0
   -5.6190   -2.8980    0.2121 H   0  0  0  0  0  0  0  0  0  0  0  0
   -5.0388   -3.6302   -1.2597 H   0  0  0  0  0  0  0  0  0  0  0  0
  1  4  2  0  0  0  0
  1  6  1  0  0  0  0
  2  4  1  0  0  0  0
  2  7  2  0  0  0  0
  3  5  1  0  0  0  0
  3 15  2  0  0  0  0
  4 14  1  0  0  0  0
  5  9  2  0  0  0  0
  5 14  1  0  0  0  0
  6  8  2  0  0  0  0
  6 19  1  0  0  0  0
  7  8  1  0  0  0  0
  7 20  1  0  0  0  0
  8 21  1  0  0  0  0
  9 16  1  0  0  0  0
  9 17  1  0  0  0  0
 10 15  1  0  0  0  0
 10 16  2  0  0  0  0
 10 18  1  0  0  0  0
 11 19  1  0  0  0  0
 12 20  1  0  0  0  0
 13 21  1  0  0  0  0
  1 22  1  0  0  0  0
  2 23  1  0  0  0  0
  3 24  1  0  0  0  0
 11 25  1  0  0  0  0
 11 26  1  0  0  0  0
 11 27  1  0  0  0  0
 12 28  1  0  0  0  0
 12 29  1  0  0  0  0
 12 30  1  0  0  0  0
 13 31  1  0  0  0  0
 13 32  1  0  0  0  0
 13 33  1  0  0  0  0
 14 34  1  0  0  0  0
 14 35  1  0  0  0  0
 17 36  1  0  0  0  0
 17 37  1  0  0  0  0
 18 38  1  0  0  0  0
 18 39  1  0  0  0  0
M  END
$$$$
