2-(1~{H}-indol-3-yl)ethanamine
  -OEChem-02121815213D

 24 25  0     0  0  0  0  0  0999 V2000
   -0.7036    1.3640    1.5041 C   0  0  0  0  0  0  0  0  0  0  0  0
   -0.7671    0.1975    0.7446 C   0  0  0  0  0  0  0  0  0  0  0  0
   -1.6773    1.6439    2.4698 C   0  0  0  0  0  0  0  0  0  0  0  0
   -1.8022   -0.7245    0.9247 C   0  0  0  0  0  0  0  0  0  0  0  0
   -4.5471   -0.4724    3.2738 C   0  0  0  0  0  0  0  0  0  0  0  0
   -2.7304    0.7292    2.6692 C   0  0  0  0  0  0  0  0  0  0  0  0
   -3.8586    0.6897    3.5356 C   0  0  0  0  0  0  0  0  0  0  0  0
   -2.7685   -0.4315    1.8936 C   0  0  0  0  0  0  0  0  0  0  0  0
   -4.2341    1.7076    4.5379 C   0  0  0  0  0  0  0  0  0  0  0  0
   -4.8719    2.9737    3.9378 C   0  0  0  0  0  0  0  0  0  0  0  0
   -3.8818   -1.1421    2.2822 N   0  0  0  0  0  0  0  0  0  0  0  0
   -5.2069    3.9424    4.9469 N   0  0  0  0  0  0  0  0  0  0  0  0
    0.1112    2.0654    1.3462 H   0  0  0  0  0  0  0  0  0  0  0  0
   -0.0003    0.0001   -0.0001 H   0  0  0  0  0  0  0  0  0  0  0  0
   -1.6132    2.5572    3.0545 H   0  0  0  0  0  0  0  0  0  0  0  0
   -1.8514   -1.6318    0.3322 H   0  0  0  0  0  0  0  0  0  0  0  0
   -5.4494   -0.8842    3.7045 H   0  0  0  0  0  0  0  0  0  0  0  0
   -3.3418    2.0186    5.1162 H   0  0  0  0  0  0  0  0  0  0  0  0
   -4.9250    1.2894    5.2976 H   0  0  0  0  0  0  0  0  0  0  0  0
   -4.1856    3.4669    3.2423 H   0  0  0  0  0  0  0  0  0  0  0  0
   -5.7914    2.7304    3.3953 H   0  0  0  0  0  0  0  0  0  0  0  0
   -4.1662   -2.0297    1.8914 H   0  0  0  0  0  0  0  0  0  0  0  0
   -5.9401    4.6087    4.7639 H   0  0  0  0  0  0  0  0  0  0  0  0
   -4.5821    4.0758    5.7260 H   0  0  0  0  0  0  0  0  0  0  0  0
  1  2  1  0  0  0  0
  1  3  2  0  0  0  0
  2  4  2  0  0  0  0
  3  6  1  0  0  0  0
  4  8  1  0  0  0  0
  5  7  2  0  0  0  0
  5 11  1  0  0  0  0
  6  7  1  0  0  0  0
  6  8  2  0  0  0  0
  7  9  1  0  0  0  0
  8 11  1  0  0  0  0
  9 10  1  0  0  0  0
 10 12  1  0  0  0  0
  1 13  1  0  0  0  0
  2 14  1  0  0  0  0
  3 15  1  0  0  0  0
  4 16  1  0  0  0  0
  5 17  1  0  0  0  0
  9 18  1  0  0  0  0
  9 19  1  0  0  0  0
 10 20  1  0  0  0  0
 10 21  1  0  0  0  0
 11 22  1  0  0  0  0
 12 23  1  0  0  0  0
 12 24  1  0  0  0  0
M  END
$$$$
