2-(3,4-dimethoxyphenyl)-5-[2-(3,4-dimethoxyphenyl)ethyl-methyl-amino]-2-isopropy
  -OEChem-02121815213D

 71 72  0     1  0  0  0  0  0999 V2000
   -1.7923    0.3030    3.1406 C   0  0  0  0  0  0  0  0  0  0  0  0
    1.0847    8.8264    1.2846 C   0  0  0  0  0  0  0  0  0  0  0  0
    1.0207    0.6366    3.1017 C   0  0  0  0  0  0  0  0  0  0  0  0
    2.3341    9.4381    1.1821 C   0  0  0  0  0  0  0  0  0  0  0  0
    2.4106    0.7469    3.1430 C   0  0  0  0  0  0  0  0  0  0  0  0
    2.0840    6.6944    0.7432 C   0  0  0  0  0  0  0  0  0  0  0  0
    0.9519    2.1927    1.2549 C   0  0  0  0  0  0  0  0  0  0  0  0
    0.9596    7.4546    1.0652 C   0  0  0  0  0  0  0  0  0  0  0  0
    0.2914    1.3594    2.1576 C   0  0  0  0  0  0  0  0  0  0  0  0
    3.4585    8.6779    0.8601 C   0  0  0  0  0  0  0  0  0  0  0  0
    3.0711    1.5802    2.2402 C   0  0  0  0  0  0  0  0  0  0  0  0
    3.3334    7.3060    0.6406 C   0  0  0  0  0  0  0  0  0  0  0  0
    2.3418    2.3031    1.2961 C   0  0  0  0  0  0  0  0  0  0  0  0
   -3.2028    0.6695    0.4478 C   0  0  0  0  0  0  0  0  0  0  0  0
   -1.1090   -0.6880    0.3481 C   0  0  0  0  0  0  0  0  0  0  0  0
   -3.0675    6.6231    2.7613 C   0  0  0  0  0  0  0  0  0  0  0  0
    4.7140   10.6926    1.0024 C   0  0  0  0  0  0  0  0  0  0  0  0
    5.0983    0.9071    3.2858 C   0  0  0  0  0  0  0  0  0  0  0  0
    5.1511    5.9788    1.4090 C   0  0  0  0  0  0  0  0  0  0  0  0
    3.3791    2.5433   -0.8304 C   0  0  0  0  0  0  0  0  0  0  0  0
   -0.3915    6.7924    1.1786 C   0  0  0  0  0  0  0  0  0  0  0  0
   -1.3047    3.4206    3.5701 C   0  0  0  0  0  0  0  0  0  0  0  0
   -1.8992    2.6403    2.3790 C   0  0  0  0  0  0  0  0  0  0  0  0
   -0.6938    6.2938    2.5896 C   0  0  0  0  0  0  0  0  0  0  0  0
   -2.0350    4.7399    3.8382 C   0  0  0  0  0  0  0  0  0  0  0  0
   -1.6818    0.7036    0.6775 C   0  0  0  0  0  0  0  0  0  0  0  0
   -1.2499    1.2351    2.1101 C   0  0  2  0  0  0  0  0  0  0  0  0
   -2.2302   -0.4169    3.9393 N   0  0  0  0  0  0  0  0  0  0  0  0
   -1.9950    5.6295    2.6840 N   0  0  1  0  0  0  0  0  0  0  0  0
    4.6731    9.2873    0.7629 O   0  0  0  0  0  0  0  0  0  0  0  0
    4.4290    1.6793    2.2910 O   0  0  0  0  0  0  0  0  0  0  0  0
    4.4240    6.5534    0.3248 O   0  0  0  0  0  0  0  0  0  0  0  0
    2.9757    3.1206    0.4098 O   0  0  0  0  0  0  0  0  0  0  0  0
    0.2146    9.4262    1.5375 H   0  0  0  0  0  0  0  0  0  0  0  0
    0.5147   -0.0162    3.8079 H   0  0  0  0  0  0  0  0  0  0  0  0
    2.4243   10.5071    1.3538 H   0  0  0  0  0  0  0  0  0  0  0  0
    2.9724    0.1814    3.8812 H   0  0  0  0  0  0  0  0  0  0  0  0
    1.9893    5.6247    0.5722 H   0  0  0  0  0  0  0  0  0  0  0  0
    0.3858    2.7568    0.5175 H   0  0  0  0  0  0  0  0  0  0  0  0
   -3.7095    0.0076    1.1568 H   0  0  0  0  0  0  0  0  0  0  0  0
   -3.4302    0.3067   -0.5611 H   0  0  0  0  0  0  0  0  0  0  0  0
   -3.6439    1.6671    0.5275 H   0  0  0  0  0  0  0  0  0  0  0  0
   -1.4541   -1.4476    1.0556 H   0  0  0  0  0  0  0  0  0  0  0  0
   -0.0147   -0.6739    0.4058 H   0  0  0  0  0  0  0  0  0  0  0  0
   -1.3802   -1.0107   -0.6622 H   0  0  0  0  0  0  0  0  0  0  0  0
   -4.0376    6.1241    2.8316 H   0  0  0  0  0  0  0  0  0  0  0  0
   -3.0613    7.2561    1.8698 H   0  0  0  0  0  0  0  0  0  0  0  0
   -2.9330    7.2567    3.6420 H   0  0  0  0  0  0  0  0  0  0  0  0
    5.7401   11.0520    0.8930 H   0  0  0  0  0  0  0  0  0  0  0  0
    4.3488   10.9021    2.0110 H   0  0  0  0  0  0  0  0  0  0  0  0
    4.0744   11.1962    0.2736 H   0  0  0  0  0  0  0  0  0  0  0  0
    6.1754    1.0779    3.2172 H   0  0  0  0  0  0  0  0  0  0  0  0
    4.8764   -0.1525    3.1363 H   0  0  0  0  0  0  0  0  0  0  0  0
    4.7449    1.2156    4.2726 H   0  0  0  0  0  0  0  0  0  0  0  0
    5.9951    5.4046    1.0190 H   0  0  0  0  0  0  0  0  0  0  0  0
    4.4905    5.3284    1.9878 H   0  0  0  0  0  0  0  0  0  0  0  0
    5.5242    6.7802    2.0510 H   0  0  0  0  0  0  0  0  0  0  0  0
    3.8718    3.3021   -1.4433 H   0  0  0  0  0  0  0  0  0  0  0  0
    2.5030    2.1504   -1.3525 H   0  0  0  0  0  0  0  0  0  0  0  0
    4.0787    1.7279   -0.6321 H   0  0  0  0  0  0  0  0  0  0  0  0
   -0.4241    5.9464    0.4804 H   0  0  0  0  0  0  0  0  0  0  0  0
   -1.1742    7.4870    0.8477 H   0  0  0  0  0  0  0  0  0  0  0  0
   -1.3656    2.8115    4.4794 H   0  0  0  0  0  0  0  0  0  0  0  0
   -0.2422    3.6300    3.4013 H   0  0  0  0  0  0  0  0  0  0  0  0
   -1.8281    3.2573    1.4746 H   0  0  0  0  0  0  0  0  0  0  0  0
   -2.9717    2.5158    2.5792 H   0  0  0  0  0  0  0  0  0  0  0  0
    0.0584    5.5596    2.8948 H   0  0  0  0  0  0  0  0  0  0  0  0
   -0.6871    7.1120    3.3172 H   0  0  0  0  0  0  0  0  0  0  0  0
   -1.5665    5.2426    4.6916 H   0  0  0  0  0  0  0  0  0  0  0  0
   -3.0784    4.5432    4.1071 H   0  0  0  0  0  0  0  0  0  0  0  0
   -1.2819    1.3906   -0.0807 H   0  0  0  0  0  0  0  0  0  0  0  0
  1 27  1  0  0  0  0
  1 28  3  0  0  0  0
  2  4  1  0  0  0  0
  2  8  2  0  0  0  0
  3  5  2  0  0  0  0
  3  9  1  0  0  0  0
  4 10  2  0  0  0  0
  5 11  1  0  0  0  0
  6  8  1  0  0  0  0
  6 12  2  0  0  0  0
  7  9  2  0  0  0  0
  7 13  1  0  0  0  0
  8 21  1  0  0  0  0
  9 27  1  0  0  0  0
 10 12  1  0  0  0  0
 10 30  1  0  0  0  0
 11 13  2  0  0  0  0
 11 31  1  0  0  0  0
 12 32  1  0  0  0  0
 13 33  1  0  0  0  0
 14 26  1  0  0  0  0
 15 26  1  0  0  0  0
 16 29  1  0  0  0  0
 17 30  1  0  0  0  0
 18 31  1  0  0  0  0
 19 32  1  0  0  0  0
 20 33  1  0  0  0  0
 21 24  1  0  0  0  0
 22 23  1  0  0  0  0
 22 25  1  0  0  0  0
 23 27  1  0  0  0  0
 24 29  1  0  0  0  0
 25 29  1  0  0  0  0
 26 27  1  0  0  0  0
  2 34  1  0  0  0  0
  3 35  1  0  0  0  0
  4 36  1  0  0  0  0
  5 37  1  0  0  0  0
  6 38  1  0  0  0  0
  7 39  1  0  0  0  0
 14 40  1  0  0  0  0
 14 41  1  0  0  0  0
 14 42  1  0  0  0  0
 15 43  1  0  0  0  0
 15 44  1  0  0  0  0
 15 45  1  0  0  0  0
 16 46  1  0  0  0  0
 16 47  1  0  0  0  0
 16 48  1  0  0  0  0
 17 49  1  0  0  0  0
 17 50  1  0  0  0  0
 17 51  1  0  0  0  0
 18 52  1  0  0  0  0
 18 53  1  0  0  0  0
 18 54  1  0  0  0  0
 19 55  1  0  0  0  0
 19 56  1  0  0  0  0
 19 57  1  0  0  0  0
 20 58  1  0  0  0  0
 20 59  1  0  0  0  0
 20 60  1  0  0  0  0
 21 61  1  0  0  0  0
 21 62  1  0  0  0  0
 22 63  1  0  0  0  0
 22 64  1  0  0  0  0
 23 65  1  0  0  0  0
 23 66  1  0  0  0  0
 24 67  1  0  0  0  0
 24 68  1  0  0  0  0
 25 69  1  0  0  0  0
 25 70  1  0  0  0  0
 26 71  1  0  0  0  0
M  END
$$$$
