4-hydroxy-3-(3-oxo-1-phenyl-butyl)chromen-2-one
  -OEChem-02121815213D

 39 41  0     1  0  0  0  0  0999 V2000
   -2.7432    0.1305    9.5788 C   0  0  0  0  0  0  0  0  0  0  0  0
   -2.6985   -0.8203    0.4585 C   0  0  0  0  0  0  0  0  0  0  0  0
   -3.6055   -0.6609    8.8200 C   0  0  0  0  0  0  0  0  0  0  0  0
   -2.4397    1.4271    9.1637 C   0  0  0  0  0  0  0  0  0  0  0  0
   -1.4058   -0.2991    0.4917 C   0  0  0  0  0  0  0  0  0  0  0  0
   -3.5909   -0.5612    1.5045 C   0  0  0  0  0  0  0  0  0  0  0  0
   -4.1641   -0.1557    7.6460 C   0  0  0  0  0  0  0  0  0  0  0  0
   -2.9983    1.9323    7.9897 C   0  0  0  0  0  0  0  0  0  0  0  0
   -1.0027    0.4812    1.5707 C   0  0  0  0  0  0  0  0  0  0  0  0
   -3.2006    0.2237    2.5982 C   0  0  0  0  0  0  0  0  0  0  0  0
   -3.8606    1.1409    7.2308 C   0  0  0  0  0  0  0  0  0  0  0  0
   -1.9054    0.7299    2.6055 C   0  0  0  0  0  0  0  0  0  0  0  0
   -4.0822    0.5356    3.7256 C   0  0  0  0  0  0  0  0  0  0  0  0
   -3.6528    1.2983    4.7493 C   0  0  0  0  0  0  0  0  0  0  0  0
   -2.2606    1.8350    4.7559 C   0  0  0  0  0  0  0  0  0  0  0  0
   -5.6642    3.7400    4.9683 C   0  0  0  0  0  0  0  0  0  0  0  0
   -5.9197    5.2248    4.9844 C   0  0  0  0  0  0  0  0  0  0  0  0
   -4.6669    3.2205    5.9950 C   0  0  0  0  0  0  0  0  0  0  0  0
   -4.4693    1.6924    5.9504 C   0  0  2  0  0  0  0  0  0  0  0  0
   -1.8362    2.5259    5.6773 O   0  0  0  0  0  0  0  0  0  0  0  0
   -6.2102    3.0137    4.1393 O   0  0  0  0  0  0  0  0  0  0  0  0
   -1.4505    1.5218    3.6731 O   0  0  0  0  0  0  0  0  0  0  0  0
   -5.3438   -0.0125    3.6335 O   0  0  0  0  0  0  0  0  0  0  0  0
   -2.3094   -0.2626   10.4937 H   0  0  0  0  0  0  0  0  0  0  0  0
   -3.0150   -1.4300   -0.3830 H   0  0  0  0  0  0  0  0  0  0  0  0
   -3.8428   -1.6701    9.1437 H   0  0  0  0  0  0  0  0  0  0  0  0
   -1.7693    2.0439    9.7548 H   0  0  0  0  0  0  0  0  0  0  0  0
   -0.7162   -0.5022   -0.3220 H   0  0  0  0  0  0  0  0  0  0  0  0
   -4.5906   -0.9842    1.4433 H   0  0  0  0  0  0  0  0  0  0  0  0
   -4.8348   -0.7796    7.0610 H   0  0  0  0  0  0  0  0  0  0  0  0
   -2.7560    2.9436    7.6739 H   0  0  0  0  0  0  0  0  0  0  0  0
    0.0033    0.8888    1.6012 H   0  0  0  0  0  0  0  0  0  0  0  0
   -5.2157    5.7244    4.3145 H   0  0  0  0  0  0  0  0  0  0  0  0
   -6.9389    5.4277    4.6439 H   0  0  0  0  0  0  0  0  0  0  0  0
   -5.8077    5.6047    6.0029 H   0  0  0  0  0  0  0  0  0  0  0  0
   -3.7168    3.7288    5.7858 H   0  0  0  0  0  0  0  0  0  0  0  0
   -4.9998    3.5447    6.9880 H   0  0  0  0  0  0  0  0  0  0  0  0
   -5.4574    1.2346    5.8088 H   0  0  0  0  0  0  0  0  0  0  0  0
   -5.8652    0.2331    4.4051 H   0  0  0  0  0  0  0  0  0  0  0  0
  1  3  1  0  0  0  0
  1  4  2  0  0  0  0
  2  5  1  0  0  0  0
  2  6  2  0  0  0  0
  3  7  2  0  0  0  0
  4  8  1  0  0  0  0
  5  9  2  0  0  0  0
  6 10  1  0  0  0  0
  7 11  1  0  0  0  0
  8 11  2  0  0  0  0
  9 12  1  0  0  0  0
 10 12  2  0  0  0  0
 10 13  1  0  0  0  0
 11 19  1  0  0  0  0
 12 22  1  0  0  0  0
 13 14  2  0  0  0  0
 13 23  1  0  0  0  0
 14 15  1  0  0  0  0
 14 19  1  0  0  0  0
 15 20  2  0  0  0  0
 15 22  1  0  0  0  0
 16 17  1  0  0  0  0
 16 18  1  0  0  0  0
 16 21  2  0  0  0  0
 18 19  1  0  0  0  0
  1 24  1  0  0  0  0
  2 25  1  0  0  0  0
  3 26  1  0  0  0  0
  4 27  1  0  0  0  0
  5 28  1  0  0  0  0
  6 29  1  0  0  0  0
  7 30  1  0  0  0  0
  8 31  1  0  0  0  0
  9 32  1  0  0  0  0
 17 33  1  0  0  0  0
 17 34  1  0  0  0  0
 17 35  1  0  0  0  0
 18 36  1  0  0  0  0
 18 37  1  0  0  0  0
 19 38  1  0  0  0  0
 23 39  1  0  0  0  0
M  END
$$$$
